                                   MODFLOW 6
                U.S. GEOLOGICAL SURVEY MODULAR HYDROLOGIC MODEL
                          GROUNDWATER FLOW MODEL (GWF)
                            VERSION 6.3.0 03/04/2022

   MODFLOW 6 compiled Mar 07 2022 13:50:09 with Intel(R) Fortran Intel(R) 64
   Compiler Classic for applications running on Intel(R) 64, Version 2021.5.0
                             Build 20211109_000000

This software has been approved for release by the U.S. Geological 
Survey (USGS). Although the software has been subjected to rigorous 
review, the USGS reserves the right to update the software as needed 
pursuant to further analysis and review. No warranty, expressed or 
implied, is made by the USGS or the U.S. Government as to the 
functionality of the software and related material nor shall the 
fact of release constitute any such warranty. Furthermore, the 
software is released on condition that neither the USGS nor the U.S. 
Government shall be held liable for any damages resulting from its 
authorized or unauthorized use. Also refer to the USGS Water 
Resources Software User Rights Notice for complete use, copyright, 
and distribution information.


As a work of the United States Government, this USGS product is 
in the public domain within the United States. You can copy, 
modify, distribute, and perform the work, even for commercial 
purposes, all without asking permission. Additionally, USGS 
waives copyright and related rights in the work worldwide 
through CC0 1.0 Universal Public Domain Dedication 
(https://creativecommons.org/publicdomain/zero/1.0/).

The following GNU Lesser General Public License (LGPL) libraries
are used in this USGS product:

    SPARSKIT version 2.0
      ilut, luson, and qsplit 
      (https://www-users.cse.umn.edu/~saad/software/SPARSKIT/)

    RCM - Reverse Cuthill McKee Ordering
      (https://people.math.sc.edu/Burkardt/f_src/rcm/rcm.html)

    BLAS - Basic Linear Algebra Subprograms Level 1
      (https://people.math.sc.edu/Burkardt/f_src/blas1_d/blas1_d.html)

    SPARSEKIT - Sparse Matrix Utility Package
      amux, dperm, dvperm, rperm, and cperm
      (https://people.sc.fsu.edu/~jburkardt/f77_src/sparsekit/sparsekit.html)

The following BSD-3 License libraries are used in this USGS product:

    Modern Fortran DAG Library
      Copyright (c) 2018, Jacob Williams
      All rights reserved.
      (https://github.com/jacobwilliams/daglib)

MODFLOW 6 compiler options: -Imac/obj_temp -O2 -no-heap-arrays -fpe0
-traceback -fpp -module mac/mod_temp/ -c -o mac/obj_temp/compilerversion.o

System command used to initiate simulation:
mf6

MODFLOW was compiled using uniform precision.

Real Variables
  KIND: 8
  TINY (smallest non-zero value):    2.225074-308
  HUGE (largest value):    1.797693+308
  PRECISION: 15
  BIT SIZE: 64

Integer Variables
  KIND: 4
  HUGE (largest value): 2147483647
  BIT SIZE: 32

Long Integer Variables
  KIND: 8
  HUGE (largest value): 9223372036854775807
  BIT SIZE: 64

Logical Variables
  KIND: 4
  BIT SIZE: 32
 

 OPENED freyberg6.dis
 FILE TYPE:DIS6                   UNIT 1005   STATUS:OLD                 
 FORMAT:FORMATTED              ACCESS:SEQUENTIAL          
 ACTION:READ                


 OPENED freyberg6.ic
 FILE TYPE:IC6                    UNIT 1006   STATUS:OLD                 
 FORMAT:FORMATTED              ACCESS:SEQUENTIAL          
 ACTION:READ                


 OPENED freyberg6.npf
 FILE TYPE:NPF6                   UNIT 1007   STATUS:OLD                 
 FORMAT:FORMATTED              ACCESS:SEQUENTIAL          
 ACTION:READ                


 OPENED freyberg6.sto
 FILE TYPE:STO6                   UNIT 1008   STATUS:OLD                 
 FORMAT:FORMATTED              ACCESS:SEQUENTIAL          
 ACTION:READ                


 OPENED freyberg6.oc
 FILE TYPE:OC6                    UNIT 1009   STATUS:OLD                 
 FORMAT:FORMATTED              ACCESS:SEQUENTIAL          
 ACTION:READ                


 OPENED freyberg6.wel
 FILE TYPE:WEL6                   UNIT 1010   STATUS:OLD                 
 FORMAT:FORMATTED              ACCESS:SEQUENTIAL          
 ACTION:READ                


 OPENED freyberg6.rch
 FILE TYPE:RCH6                   UNIT 1011   STATUS:OLD                 
 FORMAT:FORMATTED              ACCESS:SEQUENTIAL          
 ACTION:READ                


 OPENED freyberg6.ghb
 FILE TYPE:GHB6                   UNIT 1012   STATUS:OLD                 
 FORMAT:FORMATTED              ACCESS:SEQUENTIAL          
 ACTION:READ                


 OPENED freyberg6.sfr
 FILE TYPE:SFR6                   UNIT 1013   STATUS:OLD                 
 FORMAT:FORMATTED              ACCESS:SEQUENTIAL          
 ACTION:READ                


 OPENED freyberg6.obs
 FILE TYPE:OBS6                   UNIT 1014   STATUS:OLD                 
 FORMAT:FORMATTED              ACCESS:SEQUENTIAL          
 ACTION:READ                

 NAMEFILE OPTIONS:
    NEWTON-RAPHSON method enabled for the model.

 DIS -- STRUCTURED GRID DISCRETIZATION PACKAGE, VERSION 2 : 3/27/2014 - INPUT READ FROM UNIT 1005


 # File generated by Flopy version 3.3.5 on 04/18/2023 at 14:30:53.
 PROCESSING DISCRETIZATION OPTIONS
    MODEL LENGTH UNIT IS METERS
 END OF DISCRETIZATION OPTIONS
 PROCESSING DISCRETIZATION DIMENSIONS
    NLAY =       1
    NROW =      40
    NCOL =      20
 END OF DISCRETIZATION DIMENSIONS
 PROCESSING GRIDDATA

 OPENED freyberg6.dis_delr.txt
 FILE TYPE:OPEN/CLOSE   UNIT 1016   STATUS:OLD                 
 FORMAT:FORMATTED              ACCESS:SEQUENTIAL          
 ACTION:READ                


 OPENED freyberg6.dis_delc.txt
 FILE TYPE:OPEN/CLOSE   UNIT 1017   STATUS:OLD                 
 FORMAT:FORMATTED              ACCESS:SEQUENTIAL          
 ACTION:READ                


 OPENED freyberg6.dis_top.txt
 FILE TYPE:OPEN/CLOSE   UNIT 1018   STATUS:OLD                 
 FORMAT:FORMATTED              ACCESS:SEQUENTIAL          
 ACTION:READ                


 OPENED freyberg6.dis_botm_layer1.txt
 FILE TYPE:OPEN/CLOSE   UNIT 1019   STATUS:OLD                 
 FORMAT:FORMATTED              ACCESS:SEQUENTIAL          
 ACTION:READ                


 OPENED freyberg6.dis_idomain_layer1.txt
 FILE TYPE:OPEN/CLOSE   UNIT 1020   STATUS:OLD                 
 FORMAT:FORMATTED              ACCESS:SEQUENTIAL          
 ACTION:READ                

 END PROCESSING GRIDDATA

 THE SPECIFIED IDOMAIN RESULTS IN A REDUCED NUMBER OF CELLS.
 NUMBER OF USER NODES: 800
 NUMBER OF NODES IN SOLUTION: 706



 NPF -- NODE PROPERTY FLOW PACKAGE, VERSION 1, 3/30/2015 INPUT READ FROM UNIT 1007


 # File generated by Flopy version 3.3.5 on 04/18/2023 at 14:30:53.
 PROCESSING NPF OPTIONS
    CELL-BY-CELL FLOW INFORMATION WILL BE SAVED TO BINARY FILE WHENEVER ICBCFL IS NOT ZERO.
 END OF NPF OPTIONS

 WEL   -- WEL PACKAGE, VERSION 8, 2/22/2014 INPUT READ FROM UNIT 1010
 # File generated by Flopy version 3.3.5 on 04/18/2023 at 14:30:53.

 PROCESSING WEL OPTIONS
    LISTS OF WEL CELLS WILL BE PRINTED.
    WEL FLOWS WILL BE PRINTED TO LISTING FILE.
    FLOWS WILL BE SAVED TO BUDGET FILE SPECIFIED IN OUTPUT CONTROL
 END OF WEL OPTIONS

 PROCESSING WEL DIMENSIONS
    MAXBOUND =       6
 END OF WEL DIMENSIONS

 GHB   -- GHB PACKAGE, VERSION 8, 2/22/2014 INPUT READ FROM UNIT 1012
 # File generated by Flopy version 3.3.5 on 04/18/2023 at 14:30:53.

 PROCESSING GHB OPTIONS
    LISTS OF GHB CELLS WILL BE PRINTED.
    GHB FLOWS WILL BE PRINTED TO LISTING FILE.
    FLOWS WILL BE SAVED TO BUDGET FILE SPECIFIED IN OUTPUT CONTROL
 END OF GHB OPTIONS

 PROCESSING GHB DIMENSIONS
    MAXBOUND =      10
 END OF GHB DIMENSIONS

 RCH   -- RCH PACKAGE, VERSION 8, 2/22/2014 INPUT READ FROM UNIT 1011
 # File generated by Flopy version 3.3.5 on 04/18/2023 at 14:30:53.

 PROCESSING RCH OPTIONS
    RECHARGE INPUT WILL BE READ AS ARRAY(S).
    FLOWS WILL BE SAVED TO BUDGET FILE SPECIFIED IN OUTPUT CONTROL
 END OF RCHA OPTIONS

 SFR   -- SFR PACKAGE, VERSION 8, 2/22/2014 INPUT READ FROM UNIT 1013
 # File generated by Flopy version 3.3.5 on 04/18/2023 at 14:30:53.

 PROCESSING SFR OPTIONS
    SFR BOUNDARIES HAVE NAMES IN LAST COLUMN.
    LISTS OF SFR CELLS WILL BE PRINTED.
    FLOWS WILL BE SAVED TO BUDGET FILE SPECIFIED IN OUTPUT CONTROL

 OPENED sfr.obs
 FILE TYPE:OBS   UNIT 1021   STATUS:OLD                 
 FORMAT:FORMATTED              ACCESS:SEQUENTIAL          
 ACTION:READ                

    MAXIMUM DEPTH CHANGE VALUE (.1000000000000000E-03) SPECIFIED.
    UNIT CONVERSION VALUE (86400.00000000000) SPECIFIED.
 END OF SFR OPTIONS

 PROCESSING SFR DIMENSIONS
    NREACHES = 40
 END OF SFR DIMENSIONS

 OPENED freyberg6.sfr_packagedata.txt
 FILE TYPE:OPEN/CLOSE   UNIT 1022   STATUS:OLD                 
 FORMAT:FORMATTED              ACCESS:SEQUENTIAL          
 ACTION:READ                


 PROCESSING SFR PACKAGEDATA
 END OF SFR PACKAGEDATA

 OPENED freyberg6.sfr_connectiondata.txt
 FILE TYPE:OPEN/CLOSE   UNIT 1023   STATUS:OLD                 
 FORMAT:FORMATTED              ACCESS:SEQUENTIAL          
 ACTION:READ                


 PROCESSING SFR CONNECTIONDATA
 END OF SFR CONNECTIONDATA

 IC -- INITIAL CONDITIONS PACKAGE, VERSION 8, 3/28/2015 INPUT READ FROM UNIT 1006
 # File generated by Flopy version 3.3.5 on 04/18/2023 at 14:30:53.
 PROCESSING GRIDDATA

 OPENED freyberg6.ic_strt_layer1.txt
 FILE TYPE:OPEN/CLOSE   UNIT 1024   STATUS:OLD                 
 FORMAT:FORMATTED              ACCESS:SEQUENTIAL          
 ACTION:READ                

 END PROCESSING GRIDDATA
 PROCESSING GRIDDATA

 OPENED freyberg6.npf_icelltype_layer1.txt
 FILE TYPE:OPEN/CLOSE   UNIT 1025   STATUS:OLD                 
 FORMAT:FORMATTED              ACCESS:SEQUENTIAL          
 ACTION:READ                


 OPENED freyberg6.npf_k33_layer1.txt
 FILE TYPE:OPEN/CLOSE   UNIT 1026   STATUS:OLD                 
 FORMAT:FORMATTED              ACCESS:SEQUENTIAL          
 ACTION:READ                

 K22 not provided.  Assuming K22 = K.
 END PROCESSING GRIDDATA

 STO -- STORAGE PACKAGE, VERSION 1, 5/19/2014 INPUT READ FROM UNIT 1008


 # File generated by Flopy version 3.3.5 on 04/18/2023 at 14:30:53.
 PROCESSING STORAGE OPTIONS
 END OF STORAGE OPTIONS
 PROCESSING GRIDDATA

 OPENED freyberg6.sto_iconvert_layer1.txt
 FILE TYPE:OPEN/CLOSE   UNIT 1027   STATUS:OLD                 
 FORMAT:FORMATTED              ACCESS:SEQUENTIAL          
 ACTION:READ                


 OPENED freyberg6.sto_ss_layer1.txt
 FILE TYPE:OPEN/CLOSE   UNIT 1028   STATUS:OLD                 
 FORMAT:FORMATTED              ACCESS:SEQUENTIAL          
 ACTION:READ                


 OPENED freyberg6.sto_sy_layer1.txt
 FILE TYPE:OPEN/CLOSE   UNIT 1029   STATUS:OLD                 
 FORMAT:FORMATTED              ACCESS:SEQUENTIAL          
 ACTION:READ                

 END PROCESSING GRIDDATA

The observation utility is active for "FREYBERG6"
 # File generated by Flopy version 3.3.5 on 04/18/2023 at 14:30:53.

Processing observation options:

Text output number of digits of precision set to: 10
The PRINT_INPUT option has been specified.


 OBSERVATIONS READ FROM FILE "freyberg6.obs"
 ----------------------------------------------------------------------------------------------------------------------------------------------------------------------------------------------------------------------------
 NAME                                     TYPE                                       TIME         LOCATION DATA                              OUTPUT FILENAME                                                                 
 ----------------------------------------------------------------------------------------------------------------------------------------------------------------------------------------------------------------------------
 ARROBS_HEAD_K:0_I:2_J:15                 CONTINUOUS  HEAD                           ALL TIMES    "  1 3 16"                                 heads.csv                                                                       
 ARROBS_HEAD_K:0_I:2_J:9                  CONTINUOUS  HEAD                           ALL TIMES    "  1 3 10"                                 heads.csv                                                                       
 ARROBS_HEAD_K:0_I:3_J:8                  CONTINUOUS  HEAD                           ALL TIMES    "  1 4 9"                                  heads.csv                                                                       
 ARROBS_HEAD_K:0_I:9_J:1                  CONTINUOUS  HEAD                           ALL TIMES    "  1 10 2"                                 heads.csv                                                                       
 ARROBS_HEAD_K:0_I:13_J:10                CONTINUOUS  HEAD                           ALL TIMES    "  1 14 11"                                heads.csv                                                                       
 ARROBS_HEAD_K:0_I:15_J:16                CONTINUOUS  HEAD                           ALL TIMES    "  1 16 17"                                heads.csv                                                                       
 ARROBS_HEAD_K:0_I:21_J:10                CONTINUOUS  HEAD                           ALL TIMES    "  1 22 11"                                heads.csv                                                                       
 ARROBS_HEAD_K:0_I:22_J:15                CONTINUOUS  HEAD                           ALL TIMES    "  1 23 16"                                heads.csv                                                                       
 ARROBS_HEAD_K:0_I:24_J:4                 CONTINUOUS  HEAD                           ALL TIMES    "  1 25 5"                                 heads.csv                                                                       
 ARROBS_HEAD_K:0_I:26_J:6                 CONTINUOUS  HEAD                           ALL TIMES    "  1 27 7"                                 heads.csv                                                                       
 ARROBS_HEAD_K:0_I:29_J:15                CONTINUOUS  HEAD                           ALL TIMES    "  1 30 16"                                heads.csv                                                                       
 ARROBS_HEAD_K:0_I:33_J:7                 CONTINUOUS  HEAD                           ALL TIMES    "  1 34 8"                                 heads.csv                                                                       
 ARROBS_HEAD_K:0_I:34_J:10                CONTINUOUS  HEAD                           ALL TIMES    "  1 35 11"                                heads.csv                                                                       
 ----------------------------------------------------------------------------------------------------------------------------------------------------------------------------------------------------------------------------


    BINARY GRID INFORMATION WILL BE WRITTEN TO:
      UNIT NUMBER: 1031
      FILE NAME: /Users/JWhite/Dev/mf6adj/katie_testing/freyberg/freyberg6.dis.grb

 OPENED /Users/JWhite/Dev/mf6adj/katie_testing/freyberg/freyberg6.dis.grb
 FILE TYPE:DATA(BINARY)   UNIT 1031   STATUS:REPLACE             
 FORMAT:UNFORMATTED            ACCESS:STREAM              
 ACTION:READWRITE           

      THE LAST TIME STEP WILL BE PRINTED
      THE LAST TIME STEP WILL BE PRINTED
 # File generated by Flopy version 3.3.5 on 04/18/2023 at 14:30:53.

 PROCESSING OC OPTIONS

    BUDGET INFORMATION WILL BE WRITTEN TO:
      UNIT NUMBER: 1032
      FILE NAME: freyberg6_freyberg.cbc

 OPENED freyberg6_freyberg.cbc
 FILE TYPE:DATA(BINARY)   UNIT 1032   STATUS:REPLACE             
 FORMAT:UNFORMATTED            ACCESS:STREAM              
 ACTION:READWRITE           

    HEAD INFORMATION WILL BE WRITTEN TO:
      UNIT NUMBER: 1033
      FILE NAME: freyberg6_freyberg.hds

 OPENED freyberg6_freyberg.hds
 FILE TYPE:DATA(BINARY)   UNIT 1033   STATUS:REPLACE             
 FORMAT:UNFORMATTED            ACCESS:STREAM              
 ACTION:READWRITE           

 END OF OC OPTIONS

The observation utility is active for "SFR_1"
 # File generated by Flopy version 3.3.5 on 04/18/2023 at 14:30:53.

Processing observation options:



 SFR PACKAGE (SFR_1) STATIC REACH DATA
 ---------------------------------------------------------------------------------------------------------------------------------------
                                                                                                                              UPSTREAM  
   NUMBER   CELLID                  LENGTH       WIDTH        SLOPE         TOP       THICKNESS        HK       ROUGHNESS     FRACTION  
 ---------------------------------------------------------------------------------------------------------------------------------------
     1      (1,1,16)              250.00       5.0000       5.00000E-05  34.000       1.0000       0.10000      3.00000E-02  1.0000     
     2      (1,2,16)              250.00       5.0000       5.00000E-05  33.987       1.0000       0.10000      3.00000E-02  1.0000     
     3      (1,3,16)              250.00       5.0000       5.00000E-05  33.974       1.0000       0.10000      3.00000E-02  1.0000     
     4      (1,4,16)              250.00       5.0000       5.00000E-05  33.962       1.0000       0.10000      3.00000E-02  1.0000     
     5      (1,5,16)              250.00       5.0000       5.00000E-05  33.949       1.0000       0.10000      3.00000E-02  1.0000     
     6      (1,6,16)              250.00       5.0000       5.00000E-05  33.936       1.0000       0.10000      3.00000E-02  1.0000     
     7      (1,7,16)              250.00       5.0000       5.00000E-05  33.923       1.0000       0.10000      3.00000E-02  1.0000     
     8      (1,8,16)              250.00       5.0000       5.00000E-05  33.910       1.0000       0.10000      3.00000E-02  1.0000     
     9      (1,9,16)              250.00       5.0000       5.00000E-05  33.897       1.0000       0.10000      3.00000E-02  1.0000     
     10     (1,10,16)             250.00       5.0000       5.00000E-05  33.885       1.0000       0.10000      3.00000E-02  1.0000     
     11     (1,11,16)             250.00       5.0000       5.00000E-05  33.872       1.0000       0.10000      3.00000E-02  1.0000     
     12     (1,12,16)             250.00       5.0000       5.00000E-05  33.859       1.0000       0.10000      3.00000E-02  1.0000     
     13     (1,13,16)             250.00       5.0000       5.00000E-05  33.846       1.0000       0.10000      3.00000E-02  1.0000     
     14     (1,14,16)             250.00       5.0000       5.00000E-05  33.833       1.0000       0.10000      3.00000E-02  1.0000     
     15     (1,15,16)             250.00       5.0000       5.00000E-05  33.821       1.0000       0.10000      3.00000E-02  1.0000     
     16     (1,16,16)             250.00       5.0000       5.00000E-05  33.808       1.0000       0.10000      3.00000E-02  1.0000     
     17     (1,17,16)             250.00       5.0000       5.00000E-05  33.795       1.0000       0.10000      3.00000E-02  1.0000     
     18     (1,18,16)             250.00       5.0000       5.00000E-05  33.782       1.0000       0.10000      3.00000E-02  1.0000     
     19     (1,19,16)             250.00       5.0000       5.00000E-05  33.769       1.0000       0.10000      3.00000E-02  1.0000     
     20     (1,20,16)             250.00       5.0000       5.00000E-05  33.756       1.0000       0.10000      3.00000E-02  1.0000     
     21     (1,21,16)             250.00       5.0000       5.00000E-05  33.744       1.0000       0.10000      3.00000E-02  1.0000     
     22     (1,22,16)             250.00       5.0000       5.00000E-05  33.731       1.0000       0.10000      3.00000E-02  1.0000     
     23     (1,23,16)             250.00       5.0000       5.00000E-05  33.718       1.0000       0.10000      3.00000E-02  1.0000     
     24     (1,24,16)             250.00       5.0000       5.00000E-05  33.705       1.0000       0.10000      3.00000E-02  1.0000     
     25     (1,25,16)             250.00       5.0000       5.00000E-05  33.692       1.0000       0.10000      3.00000E-02  1.0000     
     26     (1,26,16)             250.00       5.0000       5.00000E-05  33.679       1.0000       0.10000      3.00000E-02  1.0000     
     27     (1,27,16)             250.00       5.0000       5.00000E-05  33.667       1.0000       0.10000      3.00000E-02  1.0000     
     28     (1,28,16)             250.00       5.0000       5.00000E-05  33.654       1.0000       0.10000      3.00000E-02  1.0000     
     29     (1,29,16)             250.00       5.0000       5.00000E-05  33.641       1.0000       0.10000      3.00000E-02  1.0000     
     30     (1,30,16)             250.00       5.0000       5.00000E-05  33.628       1.0000       0.10000      3.00000E-02  1.0000     
     31     (1,31,16)             250.00       5.0000       5.00000E-05  33.615       1.0000       0.10000      3.00000E-02  1.0000     
     32     (1,32,16)             250.00       5.0000       5.00000E-05  33.603       1.0000       0.10000      3.00000E-02  1.0000     
     33     (1,33,16)             250.00       5.0000       5.00000E-05  33.590       1.0000       0.10000      3.00000E-02  1.0000     
     34     (1,34,16)             250.00       5.0000       5.00000E-05  33.577       1.0000       0.10000      3.00000E-02  1.0000     
     35     (1,35,16)             250.00       5.0000       5.00000E-05  33.564       1.0000       0.10000      3.00000E-02  1.0000     
     36     (1,36,16)             250.00       5.0000       5.00000E-05  33.551       1.0000       0.10000      3.00000E-02  1.0000     
     37     (1,37,16)             250.00       5.0000       5.00000E-05  33.538       1.0000       0.10000      3.00000E-02  1.0000     
     38     (1,38,16)             250.00       5.0000       5.00000E-05  33.526       1.0000       0.10000      3.00000E-02  1.0000     
     39     (1,39,16)             250.00       5.0000       5.00000E-05  33.513       1.0000       0.10000      3.00000E-02  1.0000     
     40     (1,40,16)             250.00       5.0000       5.00000E-05  33.510       1.0000       0.10000      3.00000E-02  1.0000     
 ---------------------------------------------------------------------------------------------------------------------------------------



 SFR PACKAGE (SFR_1) STATIC REACH CONNECTION DATA
 --------------------------------
   REACH      CONN 1     CONN 2  
 --------------------------------
     1          2                
     2          1          3     
     3          2          4     
     4          3          5     
     5          4          6     
     6          5          7     
     7          6          8     
     8          7          9     
     9          8          10    
     10         9          11    
     11         10         12    
     12         11         13    
     13         12         14    
     14         13         15    
     15         14         16    
     16         15         17    
     17         16         18    
     18         17         19    
     19         18         20    
     20         19         21    
     21         20         22    
     22         21         23    
     23         22         24    
     24         23         25    
     25         24         26    
     26         25         27    
     27         26         28    
     28         27         29    
     29         28         30    
     30         29         31    
     31         30         32    
     32         31         33    
     33         32         34    
     34         33         35    
     35         34         36    
     36         35         37    
     37         36         38    
     38         37         39    
     39         38         40    
     40         39               
 --------------------------------



 SFR PACKAGE (SFR_1) STATIC UPSTREAM REACH CONNECTION DATA
 ---------------------
             UPSTREAM 
   REACH      CONN 1  
 ---------------------
     1                
     2          1     
     3          2     
     4          3     
     5          4     
     6          5     
     7          6     
     8          7     
     9          8     
     10         9     
     11         10    
     12         11    
     13         12    
     14         13    
     15         14    
     16         15    
     17         16    
     18         17    
     19         18    
     20         19    
     21         20    
     22         21    
     23         22    
     24         23    
     25         24    
     26         25    
     27         26    
     28         27    
     29         28    
     30         29    
     31         30    
     32         31    
     33         32    
     34         33    
     35         34    
     36         35    
     37         36    
     38         37    
     39         38    
     40         39    
 ---------------------



 SFR PACKAGE (SFR_1) STATIC DOWNSTREAM REACH CONNECTION DATA
 ---------------------
            DOWNSTREAM
   REACH      CONN 1  
 ---------------------
     1          2     
     2          3     
     3          4     
     4          5     
     5          6     
     6          7     
     7          8     
     8          9     
     9          10    
     10         11    
     11         12    
     12         13    
     13         14    
     14         15    
     15         16    
     16         17    
     17         18    
     18         19    
     19         20    
     20         21    
     21         22    
     22         23    
     23         24    
     24         25    
     25         26    
     26         27    
     27         28    
     28         29    
     29         30    
     30         31    
     31         32    
     32         33    
     33         34    
     34         35    
     35         36    
     36         37    
     37         38    
     38         39    
     39         40    
     40               
 ---------------------



start timestep kper="1" kstp="1" mode="normal"


 BEGIN READING OUTPUT CONTROL FOR STRESS PERIOD 1
      ALL TIME STEPS WILL BE SAVED
      ALL TIME STEPS WILL BE SAVED
      ALL TIME STEPS WILL BE PRINTED

 END READING OUTPUT CONTROL FOR STRESS PERIOD 1


 PROCESSING STORAGE PERIOD DATA
 END PROCESSING STORAGE PERIOD DATA


 STRESS PERIOD 1 IS STEADY-STATE

 ---------------------------------------------------
  WEL NO.    LAYER    ROW     COL     STRESS RATE   
 ---------------------------------------------------
     1         1      10      17    -157.500000     
     2         1      12      14    -157.500000     
     3         1      21      15    -157.500000     
     4         1      27      11    -157.500000     
     5         1      30       7    -157.500000     
     6         1      35      13    -157.500000     
 ---------------------------------------------------



 OPENED freyberg6.ghb_stress_period_data_1.txt
 FILE TYPE:OPEN/CLOSE   UNIT 1035   STATUS:OLD                 
 FORMAT:FORMATTED              ACCESS:SEQUENTIAL          
 ACTION:READ                

 --------------------------------------------------------------------
  GHB NO.    LAYER    ROW     COL        STAGE         CONDUCTANCE   
 --------------------------------------------------------------------
     1         1      40       6     33.5000000       70.0000000     
     2         1      40       7     33.5000000       70.0000000     
     3         1      40       8     33.5000000       70.0000000     
     4         1      40       9     33.5000000       70.0000000     
     5         1      40      10     33.5000000       70.0000000     
     6         1      40      11     33.5000000       70.0000000     
     7         1      40      12     33.5000000       70.0000000     
     8         1      40      13     33.5000000       70.0000000     
     9         1      40      14     33.5000000       70.0000000     
     10        1      40      15     33.5000000       70.0000000     
 --------------------------------------------------------------------



 OPENED freyberg6.rch_recharge_1.txt
 FILE TYPE:OPEN/CLOSE   UNIT 1036   STATUS:OLD                 
 FORMAT:FORMATTED              ACCESS:SEQUENTIAL          
 ACTION:READ                


 OPENED freyberg6.sfr_perioddata_1.txt
 FILE TYPE:OPEN/CLOSE   UNIT 1037   STATUS:OLD                 
 FORMAT:FORMATTED              ACCESS:SEQUENTIAL          
 ACTION:READ                


 SFR PACKAGE (SFR_1) DATA FOR PERIOD      1
 ---------------------------------------------------------------
   NUMBER   KEYWORD                  VALUE 1         VALUE 2    
 ---------------------------------------------------------------
     1      INFLOW               500.00000000000                
 ---------------------------------------------------------------



 SFR PACKAGE (SFR_1) CONNECTED REACH UPSTREAM FRACTION DATA
 ----------------------------------
            DOWNSTREAM             
   REACH     REACH 1    FRACTION 1 
 ----------------------------------
     1          2       1.0000     
     2          3       1.0000     
     3          4       1.0000     
     4          5       1.0000     
     5          6       1.0000     
     6          7       1.0000     
     7          8       1.0000     
     8          9       1.0000     
     9          10      1.0000     
     10         11      1.0000     
     11         12      1.0000     
     12         13      1.0000     
     13         14      1.0000     
     14         15      1.0000     
     15         16      1.0000     
     16         17      1.0000     
     17         18      1.0000     
     18         19      1.0000     
     19         20      1.0000     
     20         21      1.0000     
     21         22      1.0000     
     22         23      1.0000     
     23         24      1.0000     
     24         25      1.0000     
     25         26      1.0000     
     26         27      1.0000     
     27         28      1.0000     
     28         29      1.0000     
     29         30      1.0000     
     30         31      1.0000     
     31         32      1.0000     
     32         33      1.0000     
     33         34      1.0000     
     34         35      1.0000     
     35         36      1.0000     
     36         37      1.0000     
     37         38      1.0000     
     38         39      1.0000     
     39         40      1.0000     
     40                            
 ----------------------------------


 UBDSV1 SAVING     FLOW-JA-FACE ON UNIT   1032 AT TIME STEP      1, STRESS PERIOD      1
 UBDSV06 SAVING              WEL IN MODEL FREYBERG6        PACKAGE FREYBERG6       CONNECTED TO MODEL FREYBERG6        PACKAGE WEL-1            ON UNIT   1032 AT TIME STEP      1, STRESS PERIOD      1
 UBDSV06 SAVING              GHB IN MODEL FREYBERG6        PACKAGE FREYBERG6       CONNECTED TO MODEL FREYBERG6        PACKAGE GHB-1            ON UNIT   1032 AT TIME STEP      1, STRESS PERIOD      1
 UBDSV06 SAVING             RCHA IN MODEL FREYBERG6        PACKAGE FREYBERG6       CONNECTED TO MODEL FREYBERG6        PACKAGE RCH-1            ON UNIT   1032 AT TIME STEP      1, STRESS PERIOD      1
 UBDSV06 SAVING              SFR IN MODEL FREYBERG6        PACKAGE FREYBERG6       CONNECTED TO MODEL FREYBERG6        PACKAGE SFR_1            ON UNIT   1032 AT TIME STEP      1, STRESS PERIOD      1

 WEL PACKAGE (WEL-1) FLOW RATES   PERIOD      1   STEP        1
 -----------------------------------------------
   NUMBER   CELLID                    RATE      
 -----------------------------------------------
     1      (1,10,17)            -157.50000     
     2      (1,12,14)            -157.50000     
     3      (1,21,15)            -157.50000     
     4      (1,27,11)            -157.50000     
     5      (1,30,7)             -157.50000     
     6      (1,35,13)            -157.50000     
 -----------------------------------------------




 GHB PACKAGE (GHB-1) FLOW RATES   PERIOD      1   STEP        1
 -----------------------------------------------
   NUMBER   CELLID                    RATE      
 -----------------------------------------------
     1      (1,40,6)             -39.575886     
     2      (1,40,7)             -38.966569     
     3      (1,40,8)             -37.880984     
     4      (1,40,9)             -36.466030     
     5      (1,40,10)            -34.849717     
     6      (1,40,11)            -33.110233     
     7      (1,40,12)            -31.314796     
     8      (1,40,13)            -29.512649     
     9      (1,40,14)            -27.764567     
     10     (1,40,15)            -26.112587     
 -----------------------------------------------




 HEAD WILL BE SAVED ON UNIT 1033 AT END OF TIME STEP    1, STRESS PERIOD    1


  SFR_1 BUDGET FOR ENTIRE MODEL AT END OF TIME STEP    1, STRESS PERIOD   1
  ------------------------------------------------------------------------------

     CUMULATIVE SFR_1      L**3       RATES FOR THIS TIME STEP      L**3/T
     ------------------                 ------------------------

           IN:                                      IN:
           ---                                      ---
                 GWF =         195.6822                   GWF =        1956.8224
            RAINFALL =           0.0000              RAINFALL =           0.0000
         EVAPORATION =           0.0000           EVAPORATION =           0.0000
              RUNOFF =           0.0000                RUNOFF =           0.0000
          EXT-INFLOW =          50.0000            EXT-INFLOW =         500.0000
         EXT-OUTFLOW =           0.0000           EXT-OUTFLOW =           0.0000
             STORAGE =           0.0000               STORAGE =           0.0000

            TOTAL IN =         245.6822              TOTAL IN =        2456.8224

          OUT:                                     OUT:
          ----                                     ----
                 GWF =           0.0000                   GWF =           0.0000
            RAINFALL =           0.0000              RAINFALL =           0.0000
         EVAPORATION =           0.0000           EVAPORATION =           0.0000
              RUNOFF =           0.0000                RUNOFF =           0.0000
          EXT-INFLOW =           0.0000            EXT-INFLOW =           0.0000
         EXT-OUTFLOW =         245.6822           EXT-OUTFLOW =        2456.8224
             STORAGE =           0.0000               STORAGE =           0.0000

           TOTAL OUT =         245.6822             TOTAL OUT =        2456.8224

            IN - OUT =           0.0000              IN - OUT =           0.0000

 PERCENT DISCREPANCY =           0.00     PERCENT DISCREPANCY =           0.00



  VOLUME BUDGET FOR ENTIRE MODEL AT END OF TIME STEP    1, STRESS PERIOD   1
  ---------------------------------------------------------------------------------------------------

     CUMULATIVE VOLUME      L**3       RATES FOR THIS TIME STEP      L**3/T          PACKAGE NAME    
     ------------------                 ------------------------                     ----------------

           IN:                                      IN:
           ---                                      ---
              STO-SS =           0.0000                STO-SS =           0.0000     STORAGE                          
                 WEL =           0.0000                   WEL =           0.0000     WEL-1                            
                 GHB =           0.0000                   GHB =           0.0000     GHB-1                            
                RCHA =         322.7625                  RCHA =        3227.6255     RCH-1                            
                 SFR =           0.0000                   SFR =           0.0000     SFR_1                            

            TOTAL IN =         322.7625              TOTAL IN =        3227.6255

          OUT:                                     OUT:
          ----                                     ----
              STO-SS =           0.0000                STO-SS =           0.0000     STORAGE                          
                 WEL =          94.5000                   WEL =         945.0000     WEL-1                            
                 GHB =          33.5554                   GHB =         335.5540     GHB-1                            
                RCHA =           0.0000                  RCHA =           0.0000     RCH-1                            
                 SFR =         195.6353                   SFR =        1956.3528     SFR_1                            

           TOTAL OUT =         323.6907             TOTAL OUT =        3236.9068

            IN - OUT =          -0.9281              IN - OUT =          -9.2813

 PERCENT DISCREPANCY =          -0.29     PERCENT DISCREPANCY =          -0.29




         TIME SUMMARY AT END OF TIME STEP    1 IN STRESS PERIOD    1
                    SECONDS     MINUTES      HOURS       DAYS        YEARS
                    -----------------------------------------------------------
   TIME STEP LENGTH  8640.0      144.00      2.4000     0.10000     2.73785E-04
 STRESS PERIOD TIME  8640.0      144.00      2.4000     0.10000     2.73785E-04
         TOTAL TIME  8640.0      144.00      2.4000     0.10000     2.73785E-04


end timestep

