                                   MODFLOW 6
                U.S. GEOLOGICAL SURVEY MODULAR HYDROLOGIC MODEL
                            VERSION 6.3.0 03/04/2022

   MODFLOW 6 compiled Mar 07 2022 13:50:09 with Intel(R) Fortran Intel(R) 64
   Compiler Classic for applications running on Intel(R) 64, Version 2021.5.0
                             Build 20211109_000000

This software has been approved for release by the U.S. Geological 
Survey (USGS). Although the software has been subjected to rigorous 
review, the USGS reserves the right to update the software as needed 
pursuant to further analysis and review. No warranty, expressed or 
implied, is made by the USGS or the U.S. Government as to the 
functionality of the software and related material nor shall the 
fact of release constitute any such warranty. Furthermore, the 
software is released on condition that neither the USGS nor the U.S. 
Government shall be held liable for any damages resulting from its 
authorized or unauthorized use. Also refer to the USGS Water 
Resources Software User Rights Notice for complete use, copyright, 
and distribution information.


As a work of the United States Government, this USGS product is 
in the public domain within the United States. You can copy, 
modify, distribute, and perform the work, even for commercial 
purposes, all without asking permission. Additionally, USGS 
waives copyright and related rights in the work worldwide 
through CC0 1.0 Universal Public Domain Dedication 
(https://creativecommons.org/publicdomain/zero/1.0/).

The following GNU Lesser General Public License (LGPL) libraries
are used in this USGS product:

    SPARSKIT version 2.0
      ilut, luson, and qsplit 
      (https://www-users.cse.umn.edu/~saad/software/SPARSKIT/)

    RCM - Reverse Cuthill McKee Ordering
      (https://people.math.sc.edu/Burkardt/f_src/rcm/rcm.html)

    BLAS - Basic Linear Algebra Subprograms Level 1
      (https://people.math.sc.edu/Burkardt/f_src/blas1_d/blas1_d.html)

    SPARSEKIT - Sparse Matrix Utility Package
      amux, dperm, dvperm, rperm, and cperm
      (https://people.sc.fsu.edu/~jburkardt/f77_src/sparsekit/sparsekit.html)

The following BSD-3 License libraries are used in this USGS product:

    Modern Fortran DAG Library
      Copyright (c) 2018, Jacob Williams
      All rights reserved.
      (https://github.com/jacobwilliams/daglib)

MODFLOW 6 compiler options: -Imac/obj_temp -O2 -no-heap-arrays -fpe0
-traceback -fpp -module mac/mod_temp/ -c -o mac/obj_temp/compilerversion.o

System command used to initiate simulation:
mf6

MODFLOW was compiled using uniform precision.

Real Variables
  KIND: 8
  TINY (smallest non-zero value):    2.225074-308
  HUGE (largest value):    1.797693+308
  PRECISION: 15
  BIT SIZE: 64

Integer Variables
  KIND: 4
  HUGE (largest value): 2147483647
  BIT SIZE: 32

Long Integer Variables
  KIND: 8
  HUGE (largest value): 9223372036854775807
  BIT SIZE: 64

Logical Variables
  KIND: 4
  BIT SIZE: 32
 

 OPENED mfsim.nam
 FILE TYPE:NAM   UNIT 1001   STATUS:OLD                 
 FORMAT:FORMATTED              ACCESS:SEQUENTIAL          
 ACTION:READ                

 # File generated by Flopy version 3.3.5 on 04/18/2023 at 14:30:53.

 READING SIMULATION OPTIONS
    SIMULATION WILL CONTINUE EVEN IF THERE IS NONCONVERGENCE.
    ALL SIMULATION MEMORY INFORMATION WILL BE WRITTEN.
 END OF SIMULATION OPTIONS

 READING SIMULATION TIMING

 OPENED freyberg6.tdis
 FILE TYPE:TDIS   UNIT 1002   STATUS:OLD                 
 FORMAT:FORMATTED              ACCESS:SEQUENTIAL          
 ACTION:READ                


 TDIS -- TEMPORAL DISCRETIZATION PACKAGE,
 VERSION 1 : 11/13/2014 - INPUT READ FROM UNIT 1002
 # File generated by Flopy version 3.3.5 on 04/18/2023 at 14:30:53.
 PROCESSING TDIS OPTIONS
    SIMULATION TIME UNIT IS DAYS
 END OF TDIS OPTIONS
 PROCESSING TDIS DIMENSIONS
    1 STRESS PERIOD(S) IN SIMULATION
 END OF TDIS DIMENSIONS
 PROCESSING TDIS PERIODDATA


 STRESS PERIOD     LENGTH       TIME STEPS     MULTIPLIER FOR DELT
 ----------------------------------------------------------------------------
        1        0.1000000          1                    1.000
 END OF TDIS PERIODDATA
 END OF SIMULATION TIMING

 READING SIMULATION MODELS
    GWF6 model FREYBERG6 will be created as model 1
 END OF SIMULATION MODELS

 READING SIMULATION EXCHANGES
 END OF SIMULATION EXCHANGES

 READING SOLUTIONGROUP

 Creating solution: SLN_1           

 OPENED freyberg6.ims
 FILE TYPE:IMS   UNIT 1015   STATUS:OLD                 
 FORMAT:FORMATTED              ACCESS:SEQUENTIAL          
 ACTION:READ                

 END OF SIMULATION SOLUTIONGROUP

PROCESSING MODEL CONNECTIONS

 IMS -- ITERATIVE MODEL SOLUTION PACKAGE, VERSION 6, 4/28/2017
         INPUT READ FROM UNIT 1015
 # File generated by Flopy version 3.3.5 on 04/18/2023 at 14:30:53.

 PROCESSING IMS OPTIONS
 SIMPLE OPTION:
 DEFAULT SOLVER INPUT VALUES FOR FAST SOLUTIONS
 END OF IMS OPTIONS

 PROCESSING IMS NONLINEAR
 END OF IMS NONLINEAR DATA
 **UNDER-RELAXATION WILL BE USED***
 
 ***IMS LINEAR SOLVER WILL BE USED***

 IMSLINEAR -- UNSTRUCTURED LINEAR SOLUTION PACKAGE, VERSION 8, 04/28/2017

 PROCESSING LINEAR DATA
 END OF LINEAR DATA
 
 An asymmetric matrix will be solved

 OUTER ITERATION CONVERGENCE CRITERION    (DVCLOSE) =    0.100000E-01
 MAXIMUM NUMBER OF OUTER ITERATIONS        (MXITER) = 100
 SOLVER PRINTOUT INDEX                     (IPRIMS) = 1
 NONLINEAR ITERATION METHOD            (NONLINMETH) = 3
 LINEAR SOLUTION METHOD                   (LINMETH) = 1
 UNDER-RELAXATION WEIGHT REDUCTION FACTOR   (THETA) =    0.850000E+00
 UNDER-RELAXATION WEIGHT INCREASE INCREMENT (KAPPA) =    0.100000E-04
 UNDER-RELAXATION PREVIOUS HISTORY FACTOR   (GAMMA) =    0.000000E+00
 UNDER-RELAXATION MOMENTUM TERM         (AMOMENTUM) =    0.100000E+00
 MAXIMUM NUMBER OF BACKTRACKS            (NUMTRACK) = 50
 BACKTRACKING TOLERANCE FACTOR               (BTOL) =    0.110000E+01
 BACKTRACKING REDUCTION FACTOR             (BREDUC) =    0.700000E+00
 BACKTRACKING RESIDUAL LIMIT              (RES_LIM) =    0.100000E+03

       SOLUTION BY THE BICONJUGATE-GRADIENT STABILIZED METHOD
 ------------------------------------------------------------------
 MAXIMUM OF 100 CALLS OF SOLUTION ROUTINE
 MAXIMUM OF 50 INTERNAL ITERATIONS PER CALL TO SOLUTION ROUTINE
 LINEAR ACCELERATION METHOD            = BCGS      
 MATRIX PRECONDITIONING TYPE           = INCOMPLETE LUT      
 MATRIX SCALING APPROACH               = NO SCALING          
 MATRIX REORDERING APPROACH            = RCM ORDERING             
 NUMBER OF ORTHOGONALIZATIONS          = 2
 HEAD CHANGE CRITERION FOR CLOSURE     =    0.10000E-03
 RESIDUAL CHANGE CRITERION FOR CLOSURE =    0.10000E+00
 RESIDUAL CONVERGENCE OPTION           = 0
 RESIDUAL CONVERGENCE NORM             = INFINITY NORM   
 RELAXATION FACTOR                     =    0.00000E+00
 NUMBER OF LEVELS                      =              1
 DROP TOLERANCE                        =    0.10000E-02


 
    Solving:  Stress period:     1    Time step:     1
 
1
                            STRESS PERIOD NO. 1, LENGTH =  0.1000000    
                            -----------------------------------------------
                            NUMBER OF TIME STEPS = 1
                            MULTIPLIER FOR DELT =     1.000
                            INITIAL TIME STEP SIZE =  0.1000000    



 PSEUDO-TRANSIENT CONTINUATION WILL BE APPLIED TO MODEL 1 ("FREYBERG6") DURING THIS TIME STEP

 SLN_1 OUTER ITERATION SUMMARY
 ----------------------------------------------------------------------------------------------------------------------------------------------------------------
                                OUTER      INNER  BACKTRACK  BACKTRACK        INCOMING        OUTGOING                    STEP   MAXIMUM CHANGE MODEL-(CELLID) OR
 OUTER ITERATION STEP       ITERATION  ITERATION       FLAG ITERATIONS        RESIDUAL        RESIDUAL  MAXIMUM CHANGE SUCCESS             MODEL-PACKAGE-(NUMBER)
 ----------------------------------------------------------------------------------------------------------------------------------------------------------------
 Backtracking                       1                     0          0       1056733.0       1056733.0                       *                                   
 Model                              1         19                                                             893.31546                            1_GWF-(1,40,16)
 Backtracking                       2                     0          0       71557.162       71557.162                       *                                   
 Model                              2         50                                                             136.93007                            1_GWF-(1,40,16)
 Backtracking                       3                     0          0       12471.608       12471.608                       *                                   
 Model                              3         50                                                             12.661339                            1_GWF-(1,40,15)
 Backtracking                       4                     0          0       2786.7721       2786.7721                       *                                   
 Model                              4         38                                                            -1.1793951                            1_GWF-(1,40,16)
 Backtracking                       5                     0          0       552.03459       552.03459                       *                                   
 Model                              5         34                                                           -0.18749557                            1_GWF-(1,40,16)
 Backtracking                       6                     0          0       93.500028       93.500028                       *                                   
 Model                              6         15                                                       -3.48854104E-02                             1_GWF-(1,30,7)
 Backtracking                       7                     0          0       22.543052       22.543052                       *                                   
 Model                              7         13                                                       -1.47573780E-02                             1_GWF-(1,30,7)
 Backtracking                       8                     0          0       8.8796744       8.8796744                       *                                   
 Model                              8          4                                                       -3.33464340E-03       *                     1_GWF-(1,30,7)
 ----------------------------------------------------------------------------------------------------------------------------------------------------------------


 8 CALLS TO NUMERICAL SOLUTION IN TIME STEP 1 STRESS PERIOD 1
 223 TOTAL ITERATIONS

 DETAILED INFORMATION ON VARIABLES STORED IN THE MEMORY MANAGER
 -------------------------------------------------------------------------------------------------------------------------------------------
 ORIGIN                            VARIABLE NAME    DATA TYPE             NUMBER OF ITEMS ASSOCIATED VARIABLE                               
 -------------------------------------------------------------------------------------------------------------------------------------------
 TDIS                              NPER             INTEGER                             1 --                                                
 TDIS                              ITMUNI           INTEGER                             1 --                                                
 TDIS                              KPER             INTEGER                             1 --                                                
 TDIS                              KSTP             INTEGER                             1 --                                                
 TDIS                              INATS            INTEGER                             1 --                                                
 TDIS                              READNEWDATA      LOGICAL                             1 --                                                
 TDIS                              ENDOFPERIOD      LOGICAL                             1 --                                                
 TDIS                              ENDOFSIMULATION  LOGICAL                             1 --                                                
 TDIS                              DELT             DOUBLE                              1 --                                                
 TDIS                              PERTIM           DOUBLE                              1 --                                                
 TDIS                              TOTIM            DOUBLE                              1 --                                                
 TDIS                              TOTIMC           DOUBLE                              1 --                                                
 TDIS                              DELTSAV          DOUBLE                              1 --                                                
 TDIS                              TOTIMSAV         DOUBLE                              1 --                                                
 TDIS                              PERTIMSAV        DOUBLE                              1 --                                                
 TDIS                              TOTALSIMTIME     DOUBLE                              1 --                                                
 TDIS                              PERLEN           DOUBLE                              1 --                                                
 TDIS                              NSTP             INTEGER                             1 --                                                
 TDIS                              TSMULT           DOUBLE                              1 --                                                
 FREYBERG6                         ID               INTEGER                             1 --                                                
 FREYBERG6                         IOUT             INTEGER                             1 --                                                
 FREYBERG6                         INEWTON          INTEGER                             1 --                                                
 FREYBERG6                         IPRPAK           INTEGER                             1 --                                                
 FREYBERG6                         IPRFLOW          INTEGER                             1 --                                                
 FREYBERG6                         IPAKCB           INTEGER                             1 --                                                
 FREYBERG6                         IDSOLN           INTEGER                             1 --                                                
 FREYBERG6                         NEQ              INTEGER                             1 --                                                
 FREYBERG6                         NJA              INTEGER                             1 --                                                
 FREYBERG6                         ICNVG            INTEGER                             1 --                                                
 FREYBERG6                         MOFFSET          INTEGER                             1 --                                                
 FREYBERG6                         INIC             INTEGER                             1 --                                                
 FREYBERG6                         INOC             INTEGER                             1 --                                                
 FREYBERG6                         INNPF            INTEGER                             1 --                                                
 FREYBERG6                         INBUY            INTEGER                             1 --                                                
 FREYBERG6                         INSTO            INTEGER                             1 --                                                
 FREYBERG6                         INCSUB           INTEGER                             1 --                                                
 FREYBERG6                         INMVR            INTEGER                             1 --                                                
 FREYBERG6                         INHFB            INTEGER                             1 --                                                
 FREYBERG6                         INGNC            INTEGER                             1 --                                                
 FREYBERG6                         INOBS            INTEGER                             1 --                                                
 FREYBERG6                         ISS              INTEGER                             1 --                                                
 FREYBERG6                         INEWTONUR        INTEGER                             1 --                                                
 FREYBERG6/DIS                     INUNIT           INTEGER                             1 --                                                
 FREYBERG6/DIS                     IOUT             INTEGER                             1 --                                                
 FREYBERG6/DIS                     NODES            INTEGER                             1 --                                                
 FREYBERG6/DIS                     NODESUSER        INTEGER                             1 --                                                
 FREYBERG6/DIS                     NDIM             INTEGER                             1 --                                                
 FREYBERG6/DIS                     ICONDIR          INTEGER                             1 --                                                
 FREYBERG6/DIS                     WRITEGRB         LOGICAL                             1 --                                                
 FREYBERG6/DIS                     XORIGIN          DOUBLE                              1 --                                                
 FREYBERG6/DIS                     YORIGIN          DOUBLE                              1 --                                                
 FREYBERG6/DIS                     ANGROT           DOUBLE                              1 --                                                
 FREYBERG6/DIS                     NJA              INTEGER                             1 --                                                
 FREYBERG6/DIS                     NJAS             INTEGER                             1 --                                                
 FREYBERG6/DIS                     LENUNI           INTEGER                             1 --                                                
 FREYBERG6/DIS                     NLAY             INTEGER                             1 --                                                
 FREYBERG6/DIS                     NROW             INTEGER                             1 --                                                
 FREYBERG6/DIS                     NCOL             INTEGER                             1 --                                                
 FREYBERG6/NPF                     ID               INTEGER                             1 --                                                
 FREYBERG6/NPF                     INUNIT           INTEGER                             1 --                                                
 FREYBERG6/NPF                     IOUT             INTEGER                             1 --                                                
 FREYBERG6/NPF                     INEWTON          INTEGER                             1 --                                                
 FREYBERG6/NPF                     IASYM            INTEGER                             1 --                                                
 FREYBERG6/NPF                     IPRPAK           INTEGER                             1 --                                                
 FREYBERG6/NPF                     IPRFLOW          INTEGER                             1 --                                                
 FREYBERG6/NPF                     IPAKCB           INTEGER                             1 --                                                
 FREYBERG6/NPF                     IONPER           INTEGER                             1 --                                                
 FREYBERG6/NPF                     LASTONPER        INTEGER                             1 --                                                
 FREYBERG6/NPF                     INAME            INTEGER                             1 --                                                
 FREYBERG6/NPF                     IXT3D            INTEGER                             1 --                                                
 FREYBERG6/NPF                     SATOMEGA         DOUBLE                              1 --                                                
 FREYBERG6/NPF                     HNOFLO           DOUBLE                              1 --                                                
 FREYBERG6/NPF                     HDRY             DOUBLE                              1 --                                                
 FREYBERG6/NPF                     ICELLAVG         INTEGER                             1 --                                                
 FREYBERG6/NPF                     IAVGKEFF         INTEGER                             1 --                                                
 FREYBERG6/NPF                     IK22             INTEGER                             1 --                                                
 FREYBERG6/NPF                     IK33             INTEGER                             1 --                                                
 FREYBERG6/NPF                     IK22OVERK        INTEGER                             1 --                                                
 FREYBERG6/NPF                     IK33OVERK        INTEGER                             1 --                                                
 FREYBERG6/NPF                     IPERCHED         INTEGER                             1 --                                                
 FREYBERG6/NPF                     IVARCV           INTEGER                             1 --                                                
 FREYBERG6/NPF                     IDEWATCV         INTEGER                             1 --                                                
 FREYBERG6/NPF                     ITHICKSTRT       INTEGER                             1 --                                                
 FREYBERG6/NPF                     IUSGNRHC         INTEGER                             1 --                                                
 FREYBERG6/NPF                     INWTUPW          INTEGER                             1 --                                                
 FREYBERG6/NPF                     ICALCSPDIS       INTEGER                             1 --                                                
 FREYBERG6/NPF                     ISAVSPDIS        INTEGER                             1 --                                                
 FREYBERG6/NPF                     ISAVSAT          INTEGER                             1 --                                                
 FREYBERG6/NPF                     IREWET           INTEGER                             1 --                                                
 FREYBERG6/NPF                     WETFCT           DOUBLE                              1 --                                                
 FREYBERG6/NPF                     IWETIT           INTEGER                             1 --                                                
 FREYBERG6/NPF                     IHDWET           INTEGER                             1 --                                                
 FREYBERG6/NPF                     SATMIN           DOUBLE                              1 --                                                
 FREYBERG6/NPF                     IANGLE1          INTEGER                             1 --                                                
 FREYBERG6/NPF                     IANGLE2          INTEGER                             1 --                                                
 FREYBERG6/NPF                     IANGLE3          INTEGER                             1 --                                                
 FREYBERG6/NPF                     IWETDRY          INTEGER                             1 --                                                
 FREYBERG6/NPF                     NEDGES           INTEGER                             1 --                                                
 FREYBERG6/NPF                     LASTEDGE         INTEGER                             1 --                                                
 FREYBERG6/NPF                     INTVK            INTEGER                             1 --                                                
 FREYBERG6/NPF                     KCHANGEPER       INTEGER                             1 --                                                
 FREYBERG6/NPF                     KCHANGESTP       INTEGER                             1 --                                                
 FREYBERG6/XT3D                    IXT3D            INTEGER                             1 --                                                
 FREYBERG6/XT3D                    NBRMAX           INTEGER                             1 --                                                
 FREYBERG6/XT3D                    INUNIT           INTEGER                             1 --                                                
 FREYBERG6/XT3D                    IOUT             INTEGER                             1 --                                                
 FREYBERG6/XT3D                    INEWTON          INTEGER                             1 --                                                
 FREYBERG6/XT3D                    NUMEXTNBRS       INTEGER                             1 --                                                
 FREYBERG6/XT3D                    NOZEE            LOGICAL                             1 --                                                
 FREYBERG6/XT3D                    VCTHRESH         DOUBLE                              1 --                                                
 FREYBERG6/XT3D                    LAMATSAVED       LOGICAL                             1 --                                                
 FREYBERG6/XT3D                    LDISPERSION      LOGICAL                             1 --                                                
 FREYBERG6/BUY                     ID               INTEGER                             1 --                                                
 FREYBERG6/BUY                     INUNIT           INTEGER                             1 --                                                
 FREYBERG6/BUY                     IOUT             INTEGER                             1 --                                                
 FREYBERG6/BUY                     INEWTON          INTEGER                             1 --                                                
 FREYBERG6/BUY                     IASYM            INTEGER                             1 --                                                
 FREYBERG6/BUY                     IPRPAK           INTEGER                             1 --                                                
 FREYBERG6/BUY                     IPRFLOW          INTEGER                             1 --                                                
 FREYBERG6/BUY                     IPAKCB           INTEGER                             1 --                                                
 FREYBERG6/BUY                     IONPER           INTEGER                             1 --                                                
 FREYBERG6/BUY                     LASTONPER        INTEGER                             1 --                                                
 FREYBERG6/BUY                     IOUTDENSE        INTEGER                             1 --                                                
 FREYBERG6/BUY                     IFORM            INTEGER                             1 --                                                
 FREYBERG6/BUY                     IREADELEV        INTEGER                             1 --                                                
 FREYBERG6/BUY                     IREADCONCBUY     INTEGER                             1 --                                                
 FREYBERG6/BUY                     ICONCSET         INTEGER                             1 --                                                
 FREYBERG6/BUY                     DENSEREF         DOUBLE                              1 --                                                
 FREYBERG6/BUY                     NRHOSPECIES      INTEGER                             1 --                                                
 FREYBERG6/GNC                     ID               INTEGER                             1 --                                                
 FREYBERG6/GNC                     INUNIT           INTEGER                             1 --                                                
 FREYBERG6/GNC                     IOUT             INTEGER                             1 --                                                
 FREYBERG6/GNC                     INEWTON          INTEGER                             1 --                                                
 FREYBERG6/GNC                     IASYM            INTEGER                             1 --                                                
 FREYBERG6/GNC                     IPRPAK           INTEGER                             1 --                                                
 FREYBERG6/GNC                     IPRFLOW          INTEGER                             1 --                                                
 FREYBERG6/GNC                     IPAKCB           INTEGER                             1 --                                                
 FREYBERG6/GNC                     IONPER           INTEGER                             1 --                                                
 FREYBERG6/GNC                     LASTONPER        INTEGER                             1 --                                                
 FREYBERG6/GNC                     SMGNC            LOGICAL                             1 --                                                
 FREYBERG6/GNC                     IMPLICIT         LOGICAL                             1 --                                                
 FREYBERG6/GNC                     I2KN             LOGICAL                             1 --                                                
 FREYBERG6/GNC                     NEXG             INTEGER                             1 --                                                
 FREYBERG6/GNC                     NUMJS            INTEGER                             1 --                                                
 FREYBERG6/HFB                     ID               INTEGER                             1 --                                                
 FREYBERG6/HFB                     INUNIT           INTEGER                             1 --                                                
 FREYBERG6/HFB                     IOUT             INTEGER                             1 --                                                
 FREYBERG6/HFB                     INEWTON          INTEGER                             1 --                                                
 FREYBERG6/HFB                     IASYM            INTEGER                             1 --                                                
 FREYBERG6/HFB                     IPRPAK           INTEGER                             1 --                                                
 FREYBERG6/HFB                     IPRFLOW          INTEGER                             1 --                                                
 FREYBERG6/HFB                     IPAKCB           INTEGER                             1 --                                                
 FREYBERG6/HFB                     IONPER           INTEGER                             1 --                                                
 FREYBERG6/HFB                     LASTONPER        INTEGER                             1 --                                                
 FREYBERG6/HFB                     MAXHFB           INTEGER                             1 --                                                
 FREYBERG6/HFB                     NHFB             INTEGER                             1 --                                                
 FREYBERG6/STO                     ID               INTEGER                             1 --                                                
 FREYBERG6/STO                     INUNIT           INTEGER                             1 --                                                
 FREYBERG6/STO                     IOUT             INTEGER                             1 --                                                
 FREYBERG6/STO                     INEWTON          INTEGER                             1 --                                                
 FREYBERG6/STO                     IASYM            INTEGER                             1 --                                                
 FREYBERG6/STO                     IPRPAK           INTEGER                             1 --                                                
 FREYBERG6/STO                     IPRFLOW          INTEGER                             1 --                                                
 FREYBERG6/STO                     IPAKCB           INTEGER                             1 --                                                
 FREYBERG6/STO                     IONPER           INTEGER                             1 --                                                
 FREYBERG6/STO                     LASTONPER        INTEGER                             1 --                                                
 FREYBERG6/STO                     ISTOR_COEF       INTEGER                             1 --                                                
 FREYBERG6/STO                     ICONF_SS         INTEGER                             1 --                                                
 FREYBERG6/STO                     IORIG_SS         INTEGER                             1 --                                                
 FREYBERG6/STO                     IUSESY           INTEGER                             1 --                                                
 FREYBERG6/STO                     SATOMEGA         DOUBLE                              1 --                                                
 FREYBERG6/STO                     INTEGRATECHANGES INTEGER                             1 --                                                
 FREYBERG6/STO                     INTVS            INTEGER                             1 --                                                
 FREYBERG6/CSUB                    ID               INTEGER                             1 --                                                
 FREYBERG6/CSUB                    INUNIT           INTEGER                             1 --                                                
 FREYBERG6/CSUB                    IOUT             INTEGER                             1 --                                                
 FREYBERG6/CSUB                    INEWTON          INTEGER                             1 --                                                
 FREYBERG6/CSUB                    IASYM            INTEGER                             1 --                                                
 FREYBERG6/CSUB                    IPRPAK           INTEGER                             1 --                                                
 FREYBERG6/CSUB                    IPRFLOW          INTEGER                             1 --                                                
 FREYBERG6/CSUB                    IPAKCB           INTEGER                             1 --                                                
 FREYBERG6/CSUB                    IONPER           INTEGER                             1 --                                                
 FREYBERG6/CSUB                    LASTONPER        INTEGER                             1 --                                                
 FREYBERG6/CSUB                    LISTLABEL        STRING LEN=500                    500 --                                                
 FREYBERG6/CSUB                    STONAME          STRING LEN=33                      33 --                                                
 FREYBERG6/CSUB                    ISTOUNIT         INTEGER                             1 --                                                
 FREYBERG6/CSUB                    INOBSPKG         INTEGER                             1 --                                                
 FREYBERG6/CSUB                    NINTERBEDS       INTEGER                             1 --                                                
 FREYBERG6/CSUB                    MAXSIG0          INTEGER                             1 --                                                
 FREYBERG6/CSUB                    NBOUND           INTEGER                             1 --                                                
 FREYBERG6/CSUB                    ISCLOC           INTEGER                             1 --                                                
 FREYBERG6/CSUB                    IAUXMULTCOL      INTEGER                             1 --                                                
 FREYBERG6/CSUB                    NDELAYCELLS      INTEGER                             1 --                                                
 FREYBERG6/CSUB                    NDELAYBEDS       INTEGER                             1 --                                                
 FREYBERG6/CSUB                    INITIALIZED      INTEGER                             1 --                                                
 FREYBERG6/CSUB                    IESLAG           INTEGER                             1 --                                                
 FREYBERG6/CSUB                    IPCH             INTEGER                             1 --                                                
 FREYBERG6/CSUB                    LHEAD_BASED      LOGICAL                             1 --                                                
 FREYBERG6/CSUB                    IUPDATESTRESS    INTEGER                             1 --                                                
 FREYBERG6/CSUB                    ISPECIFIED_PCS   INTEGER                             1 --                                                
 FREYBERG6/CSUB                    ISPECIFIED_DBH   INTEGER                             1 --                                                
 FREYBERG6/CSUB                    INAMEDBOUND      INTEGER                             1 --                                                
 FREYBERG6/CSUB                    ICONVCHK         INTEGER                             1 --                                                
 FREYBERG6/CSUB                    NAUX             INTEGER                             1 --                                                
 FREYBERG6/CSUB                    ISTORAGEC        INTEGER                             1 --                                                
 FREYBERG6/CSUB                    ISTRAINIB        INTEGER                             1 --                                                
 FREYBERG6/CSUB                    ISTRAINSK        INTEGER                             1 --                                                
 FREYBERG6/CSUB                    IOUTCOMP         INTEGER                             1 --                                                
 FREYBERG6/CSUB                    IOUTCOMPI        INTEGER                             1 --                                                
 FREYBERG6/CSUB                    IOUTCOMPE        INTEGER                             1 --                                                
 FREYBERG6/CSUB                    IOUTCOMPIB       INTEGER                             1 --                                                
 FREYBERG6/CSUB                    IOUTCOMPS        INTEGER                             1 --                                                
 FREYBERG6/CSUB                    IOUTZDISP        INTEGER                             1 --                                                
 FREYBERG6/CSUB                    IPAKCSV          INTEGER                             1 --                                                
 FREYBERG6/CSUB                    IUPDATEMATPROP   INTEGER                             1 --                                                
 FREYBERG6/CSUB                    EPSILON          DOUBLE                              1 --                                                
 FREYBERG6/CSUB                    CC_CRIT          DOUBLE                              1 --                                                
 FREYBERG6/CSUB                    GAMMAW           DOUBLE                              1 --                                                
 FREYBERG6/CSUB                    BETA             DOUBLE                              1 --                                                
 FREYBERG6/CSUB                    BRG              DOUBLE                              1 --                                                
 FREYBERG6/CSUB                    SATOMEGA         DOUBLE                              1 --                                                
 FREYBERG6/CSUB                    ICELLF           INTEGER                             1 --                                                
 FREYBERG6/CSUB                    GWFISS0          INTEGER                             1 --                                                
 FREYBERG6/IC                      ID               INTEGER                             1 --                                                
 FREYBERG6/IC                      INUNIT           INTEGER                             1 --                                                
 FREYBERG6/IC                      IOUT             INTEGER                             1 --                                                
 FREYBERG6/IC                      INEWTON          INTEGER                             1 --                                                
 FREYBERG6/IC                      IASYM            INTEGER                             1 --                                                
 FREYBERG6/IC                      IPRPAK           INTEGER                             1 --                                                
 FREYBERG6/IC                      IPRFLOW          INTEGER                             1 --                                                
 FREYBERG6/IC                      IPAKCB           INTEGER                             1 --                                                
 FREYBERG6/IC                      IONPER           INTEGER                             1 --                                                
 FREYBERG6/IC                      LASTONPER        INTEGER                             1 --                                                
 FREYBERG6/MVR                     ID               INTEGER                             1 --                                                
 FREYBERG6/MVR                     INUNIT           INTEGER                             1 --                                                
 FREYBERG6/MVR                     IOUT             INTEGER                             1 --                                                
 FREYBERG6/MVR                     INEWTON          INTEGER                             1 --                                                
 FREYBERG6/MVR                     IASYM            INTEGER                             1 --                                                
 FREYBERG6/MVR                     IPRPAK           INTEGER                             1 --                                                
 FREYBERG6/MVR                     IPRFLOW          INTEGER                             1 --                                                
 FREYBERG6/MVR                     IPAKCB           INTEGER                             1 --                                                
 FREYBERG6/MVR                     IONPER           INTEGER                             1 --                                                
 FREYBERG6/MVR                     LASTONPER        INTEGER                             1 --                                                
 FREYBERG6/MVR                     IBUDGETOUT       INTEGER                             1 --                                                
 FREYBERG6/MVR                     IBUDCSV          INTEGER                             1 --                                                
 FREYBERG6/MVR                     MAXMVR           INTEGER                             1 --                                                
 FREYBERG6/MVR                     MAXPACKAGES      INTEGER                             1 --                                                
 FREYBERG6/MVR                     MAXCOMB          INTEGER                             1 --                                                
 FREYBERG6/MVR                     NMVR             INTEGER                             1 --                                                
 FREYBERG6/MVR                     IEXGMVR          INTEGER                             1 --                                                
 FREYBERG6/MVR                     IMODELNAMES      INTEGER                             1 --                                                
 FREYBERG6/OC                      INUNIT           INTEGER                             1 --                                                
 FREYBERG6/OC                      IOUT             INTEGER                             1 --                                                
 FREYBERG6/OC                      IBUDCSV          INTEGER                             1 --                                                
 FREYBERG6/OC                      IPEROC           INTEGER                             1 --                                                
 FREYBERG6/OC                      IOCREP           INTEGER                             1 --                                                
 FREYBERG6/WEL-1                   ID               INTEGER                             1 --                                                
 FREYBERG6/WEL-1                   INUNIT           INTEGER                             1 --                                                
 FREYBERG6/WEL-1                   IOUT             INTEGER                             1 --                                                
 FREYBERG6/WEL-1                   INEWTON          INTEGER                             1 --                                                
 FREYBERG6/WEL-1                   IASYM            INTEGER                             1 --                                                
 FREYBERG6/WEL-1                   IPRPAK           INTEGER                             1 --                                                
 FREYBERG6/WEL-1                   IPRFLOW          INTEGER                             1 --                                                
 FREYBERG6/WEL-1                   IPAKCB           INTEGER                             1 --                                                
 FREYBERG6/WEL-1                   IONPER           INTEGER                             1 --                                                
 FREYBERG6/WEL-1                   LASTONPER        INTEGER                             1 --                                                
 FREYBERG6/WEL-1                   LISTLABEL        STRING LEN=500                    500 --                                                
 FREYBERG6/WEL-1                   ISADVPAK         INTEGER                             1 --                                                
 FREYBERG6/WEL-1                   IBCNUM           INTEGER                             1 --                                                
 FREYBERG6/WEL-1                   MAXBOUND         INTEGER                             1 --                                                
 FREYBERG6/WEL-1                   NBOUND           INTEGER                             1 --                                                
 FREYBERG6/WEL-1                   NCOLBND          INTEGER                             1 --                                                
 FREYBERG6/WEL-1                   ISCLOC           INTEGER                             1 --                                                
 FREYBERG6/WEL-1                   NAUX             INTEGER                             1 --                                                
 FREYBERG6/WEL-1                   INAMEDBOUND      INTEGER                             1 --                                                
 FREYBERG6/WEL-1                   IAUXMULTCOL      INTEGER                             1 --                                                
 FREYBERG6/WEL-1                   INOBSPKG         INTEGER                             1 --                                                
 FREYBERG6/WEL-1                   IMOVER           INTEGER                             1 --                                                
 FREYBERG6/WEL-1                   NPAKEQ           INTEGER                             1 --                                                
 FREYBERG6/WEL-1                   IOFFSET          INTEGER                             1 --                                                
 FREYBERG6/WEL-1                   AUXNAME          STRING LEN=16                       0 --                                                
 FREYBERG6/WEL-1                   IFLOWRED         INTEGER                             1 --                                                
 FREYBERG6/WEL-1                   FLOWRED          DOUBLE                              1 --                                                
 FREYBERG6/WEL-1                   IOUTAFRCSV       INTEGER                             1 --                                                
 FREYBERG6/GHB-1                   ID               INTEGER                             1 --                                                
 FREYBERG6/GHB-1                   INUNIT           INTEGER                             1 --                                                
 FREYBERG6/GHB-1                   IOUT             INTEGER                             1 --                                                
 FREYBERG6/GHB-1                   INEWTON          INTEGER                             1 --                                                
 FREYBERG6/GHB-1                   IASYM            INTEGER                             1 --                                                
 FREYBERG6/GHB-1                   IPRPAK           INTEGER                             1 --                                                
 FREYBERG6/GHB-1                   IPRFLOW          INTEGER                             1 --                                                
 FREYBERG6/GHB-1                   IPAKCB           INTEGER                             1 --                                                
 FREYBERG6/GHB-1                   IONPER           INTEGER                             1 --                                                
 FREYBERG6/GHB-1                   LASTONPER        INTEGER                             1 --                                                
 FREYBERG6/GHB-1                   LISTLABEL        STRING LEN=500                    500 --                                                
 FREYBERG6/GHB-1                   ISADVPAK         INTEGER                             1 --                                                
 FREYBERG6/GHB-1                   IBCNUM           INTEGER                             1 --                                                
 FREYBERG6/GHB-1                   MAXBOUND         INTEGER                             1 --                                                
 FREYBERG6/GHB-1                   NBOUND           INTEGER                             1 --                                                
 FREYBERG6/GHB-1                   NCOLBND          INTEGER                             1 --                                                
 FREYBERG6/GHB-1                   ISCLOC           INTEGER                             1 --                                                
 FREYBERG6/GHB-1                   NAUX             INTEGER                             1 --                                                
 FREYBERG6/GHB-1                   INAMEDBOUND      INTEGER                             1 --                                                
 FREYBERG6/GHB-1                   IAUXMULTCOL      INTEGER                             1 --                                                
 FREYBERG6/GHB-1                   INOBSPKG         INTEGER                             1 --                                                
 FREYBERG6/GHB-1                   IMOVER           INTEGER                             1 --                                                
 FREYBERG6/GHB-1                   NPAKEQ           INTEGER                             1 --                                                
 FREYBERG6/GHB-1                   IOFFSET          INTEGER                             1 --                                                
 FREYBERG6/GHB-1                   AUXNAME          STRING LEN=16                       0 --                                                
 FREYBERG6/RCH-1                   ID               INTEGER                             1 --                                                
 FREYBERG6/RCH-1                   INUNIT           INTEGER                             1 --                                                
 FREYBERG6/RCH-1                   IOUT             INTEGER                             1 --                                                
 FREYBERG6/RCH-1                   INEWTON          INTEGER                             1 --                                                
 FREYBERG6/RCH-1                   IASYM            INTEGER                             1 --                                                
 FREYBERG6/RCH-1                   IPRPAK           INTEGER                             1 --                                                
 FREYBERG6/RCH-1                   IPRFLOW          INTEGER                             1 --                                                
 FREYBERG6/RCH-1                   IPAKCB           INTEGER                             1 --                                                
 FREYBERG6/RCH-1                   IONPER           INTEGER                             1 --                                                
 FREYBERG6/RCH-1                   LASTONPER        INTEGER                             1 --                                                
 FREYBERG6/RCH-1                   LISTLABEL        STRING LEN=500                    500 --                                                
 FREYBERG6/RCH-1                   ISADVPAK         INTEGER                             1 --                                                
 FREYBERG6/RCH-1                   IBCNUM           INTEGER                             1 --                                                
 FREYBERG6/RCH-1                   MAXBOUND         INTEGER                             1 --                                                
 FREYBERG6/RCH-1                   NBOUND           INTEGER                             1 --                                                
 FREYBERG6/RCH-1                   NCOLBND          INTEGER                             1 --                                                
 FREYBERG6/RCH-1                   ISCLOC           INTEGER                             1 --                                                
 FREYBERG6/RCH-1                   NAUX             INTEGER                             1 --                                                
 FREYBERG6/RCH-1                   INAMEDBOUND      INTEGER                             1 --                                                
 FREYBERG6/RCH-1                   IAUXMULTCOL      INTEGER                             1 --                                                
 FREYBERG6/RCH-1                   INOBSPKG         INTEGER                             1 --                                                
 FREYBERG6/RCH-1                   IMOVER           INTEGER                             1 --                                                
 FREYBERG6/RCH-1                   NPAKEQ           INTEGER                             1 --                                                
 FREYBERG6/RCH-1                   IOFFSET          INTEGER                             1 --                                                
 FREYBERG6/RCH-1                   AUXNAME          STRING LEN=16                       0 --                                                
 FREYBERG6/RCH-1                   INIRCH           INTEGER                             1 --                                                
 FREYBERG6/SFR_1                   ID               INTEGER                             1 --                                                
 FREYBERG6/SFR_1                   INUNIT           INTEGER                             1 --                                                
 FREYBERG6/SFR_1                   IOUT             INTEGER                             1 --                                                
 FREYBERG6/SFR_1                   INEWTON          INTEGER                             1 --                                                
 FREYBERG6/SFR_1                   IASYM            INTEGER                             1 --                                                
 FREYBERG6/SFR_1                   IPRPAK           INTEGER                             1 --                                                
 FREYBERG6/SFR_1                   IPRFLOW          INTEGER                             1 --                                                
 FREYBERG6/SFR_1                   IPAKCB           INTEGER                             1 --                                                
 FREYBERG6/SFR_1                   IONPER           INTEGER                             1 --                                                
 FREYBERG6/SFR_1                   LASTONPER        INTEGER                             1 --                                                
 FREYBERG6/SFR_1                   LISTLABEL        STRING LEN=500                    500 --                                                
 FREYBERG6/SFR_1                   ISADVPAK         INTEGER                             1 --                                                
 FREYBERG6/SFR_1                   IBCNUM           INTEGER                             1 --                                                
 FREYBERG6/SFR_1                   MAXBOUND         INTEGER                             1 --                                                
 FREYBERG6/SFR_1                   NBOUND           INTEGER                             1 --                                                
 FREYBERG6/SFR_1                   NCOLBND          INTEGER                             1 --                                                
 FREYBERG6/SFR_1                   ISCLOC           INTEGER                             1 --                                                
 FREYBERG6/SFR_1                   NAUX             INTEGER                             1 --                                                
 FREYBERG6/SFR_1                   INAMEDBOUND      INTEGER                             1 --                                                
 FREYBERG6/SFR_1                   IAUXMULTCOL      INTEGER                             1 --                                                
 FREYBERG6/SFR_1                   INOBSPKG         INTEGER                             1 --                                                
 FREYBERG6/SFR_1                   IMOVER           INTEGER                             1 --                                                
 FREYBERG6/SFR_1                   NPAKEQ           INTEGER                             1 --                                                
 FREYBERG6/SFR_1                   IOFFSET          INTEGER                             1 --                                                
 FREYBERG6/SFR_1                   AUXNAME          STRING LEN=16                       0 --                                                
 FREYBERG6/SFR_1                   IPRHED           INTEGER                             1 --                                                
 FREYBERG6/SFR_1                   ISTAGEOUT        INTEGER                             1 --                                                
 FREYBERG6/SFR_1                   IBUDGETOUT       INTEGER                             1 --                                                
 FREYBERG6/SFR_1                   IBUDCSV          INTEGER                             1 --                                                
 FREYBERG6/SFR_1                   IPAKCSV          INTEGER                             1 --                                                
 FREYBERG6/SFR_1                   IDIVERSIONS      INTEGER                             1 --                                                
 FREYBERG6/SFR_1                   MAXSFRPICARD     INTEGER                             1 --                                                
 FREYBERG6/SFR_1                   MAXSFRIT         INTEGER                             1 --                                                
 FREYBERG6/SFR_1                   BDITEMS          INTEGER                             1 --                                                
 FREYBERG6/SFR_1                   CBCAUXITEMS      INTEGER                             1 --                                                
 FREYBERG6/SFR_1                   UNITCONV         DOUBLE                              1 --                                                
 FREYBERG6/SFR_1                   DMAXCHG          DOUBLE                              1 --                                                
 FREYBERG6/SFR_1                   DEPS             DOUBLE                              1 --                                                
 FREYBERG6/SFR_1                   NCONN            INTEGER                             1 --                                                
 FREYBERG6/SFR_1                   ICHECK           INTEGER                             1 --                                                
 FREYBERG6/SFR_1                   ICONVCHK         INTEGER                             1 --                                                
 FREYBERG6/SFR_1                   IDENSE           INTEGER                             1 --                                                
 FREYBERG6/SFR_1                   IANYNONE         INTEGER                             1 --                                                
 FREYBERG6/SFR_1                   NCROSSPTSTOT     INTEGER                             1 --                                                
 SLN_1                             ID               INTEGER                             1 --                                                
 SLN_1                             IU               INTEGER                             1 --                                                
 SLN_1                             TTFORM           DOUBLE                              1 --                                                
 SLN_1                             TTSOLN           DOUBLE                              1 --                                                
 SLN_1                             ISYMMETRIC       INTEGER                             1 --                                                
 SLN_1                             NEQ              INTEGER                             1 --                                                
 SLN_1                             NJA              INTEGER                             1 --                                                
 SLN_1                             DVCLOSE          DOUBLE                              1 --                                                
 SLN_1                             BIGCHOLD         DOUBLE                              1 --                                                
 SLN_1                             BIGCH            DOUBLE                              1 --                                                
 SLN_1                             RELAXOLD         DOUBLE                              1 --                                                
 SLN_1                             RES_PREV         DOUBLE                              1 --                                                
 SLN_1                             RES_NEW          DOUBLE                              1 --                                                
 SLN_1                             ICNVG            INTEGER                             1 --                                                
 SLN_1                             ITERTOT_TIMESTEP INTEGER                             1 --                                                
 SLN_1                             IOUTTOT_TIMESTEP INTEGER                             1 --                                                
 SLN_1                             INNERTOT_SIM     INTEGER                             1 --                                                
 SLN_1                             MXITER           INTEGER                             1 --                                                
 SLN_1                             LINMETH          INTEGER                             1 --                                                
 SLN_1                             NONMETH          INTEGER                             1 --                                                
 SLN_1                             IPRIMS           INTEGER                             1 --                                                
 SLN_1                             THETA            DOUBLE                              1 --                                                
 SLN_1                             AKAPPA           DOUBLE                              1 --                                                
 SLN_1                             GAMMA            DOUBLE                              1 --                                                
 SLN_1                             AMOMENTUM        DOUBLE                              1 --                                                
 SLN_1                             BREDUC           DOUBLE                              1 --                                                
 SLN_1                             BTOL             DOUBLE                              1 --                                                
 SLN_1                             RES_LIM          DOUBLE                              1 --                                                
 SLN_1                             NUMTRACK         INTEGER                             1 --                                                
 SLN_1                             IBFLAG           INTEGER                             1 --                                                
 SLN_1                             ICSVOUTEROUT     INTEGER                             1 --                                                
 SLN_1                             ICSVINNEROUT     INTEGER                             1 --                                                
 SLN_1                             NITERMAX         INTEGER                             1 --                                                
 SLN_1                             CONVNMOD         INTEGER                             1 --                                                
 SLN_1                             IALLOWPTC        INTEGER                             1 --                                                
 SLN_1                             IPTCOPT          INTEGER                             1 --                                                
 SLN_1                             IPTCOUT          INTEGER                             1 --                                                
 SLN_1                             L2NORM0          DOUBLE                              1 --                                                
 SLN_1                             PTCDEL           DOUBLE                              1 --                                                
 SLN_1                             PTCDEL0          DOUBLE                              1 --                                                
 SLN_1                             PTCEXP           DOUBLE                              1 --                                                
 SLN_1                             PTCTHRESH        DOUBLE                              1 --                                                
 SLN_1                             PTCRAT           DOUBLE                              1 --                                                
 SLN_1                             ATSFRAC          DOUBLE                              1 --                                                
 FREYBERG6/DIS                     DELR             DOUBLE                             20 --                                                
 FREYBERG6/DIS                     DELC             DOUBLE                             40 --                                                
 FREYBERG6/DIS                     IDOMAIN          INTEGER                           800 --                                                
 FREYBERG6/DIS                     TOP2D            DOUBLE                            800 --                                                
 FREYBERG6/DIS                     BOT3D            DOUBLE                            800 --                                                
 FREYBERG6/DIS                     CELLX            DOUBLE                             20 --                                                
 FREYBERG6/DIS                     CELLY            DOUBLE                             40 --                                                
 FREYBERG6/DIS                     MSHAPE           INTEGER                             3 --                                                
 FREYBERG6/DIS                     TOP              DOUBLE                            706 --                                                
 FREYBERG6/DIS                     BOT              DOUBLE                            706 --                                                
 FREYBERG6/DIS                     AREA             DOUBLE                            706 --                                                
 FREYBERG6                         DBUFF            DOUBLE                            800 --                                                
 FREYBERG6                         IBUFF            INTEGER                           800 --                                                
 FREYBERG6/DIS                     NODEUSER         INTEGER                           706 --                                                
 FREYBERG6/DIS                     NODEREDUCED      INTEGER                           800 --                                                
 FREYBERG6/CON                     NODES            INTEGER                             1 --                                                
 FREYBERG6/CON                     NJA              INTEGER                             1 --                                                
 FREYBERG6/CON                     NJAS             INTEGER                             1 --                                                
 FREYBERG6/CON                     IANGLEX          INTEGER                             1 --                                                
 FREYBERG6/CON                     IA               INTEGER                           707 --                                                
 FREYBERG6/CON                     JA               INTEGER                          3372 --                                                
 FREYBERG6/CON                     ISYM             INTEGER                          3372 --                                                
 FREYBERG6/CON                     JAS              INTEGER                          3372 --                                                
 FREYBERG6/CON                     HWVA             DOUBLE                           1333 --                                                
 FREYBERG6/CON                     ANGLEX           DOUBLE                           1333 --                                                
 FREYBERG6/CON                     IHC              INTEGER                          1333 --                                                
 FREYBERG6/CON                     CL1              DOUBLE                           1333 --                                                
 FREYBERG6/CON                     CL2              DOUBLE                           1333 --                                                
 FREYBERG6/CON                     IAUSR            INTEGER                           801 --                                                
 FREYBERG6/CON                     JAUSR            INTEGER                          3372 --                                                
 FREYBERG6                         XOLD             DOUBLE                            706 --                                                
 FREYBERG6                         FLOWJA           DOUBLE                           3372 --                                                
 FREYBERG6                         IDXGLO           INTEGER                          3372 --                                                
 FREYBERG6/SFR_1                   SFRNAME          STRING LEN=40                    1600 --                                                
 FREYBERG6/SFR_1                   IBOUNDPAK        INTEGER                            40 --                                                
 FREYBERG6/SFR_1                   IGWFNODE         INTEGER                            40 --                                                
 FREYBERG6/SFR_1                   IGWFTOPNODE      INTEGER                            40 --                                                
 FREYBERG6/SFR_1                   LENGTH           DOUBLE                             40 --                                                
 FREYBERG6/SFR_1                   WIDTH            DOUBLE                             40 --                                                
 FREYBERG6/SFR_1                   STRTOP           DOUBLE                             40 --                                                
 FREYBERG6/SFR_1                   BTHICK           DOUBLE                             40 --                                                
 FREYBERG6/SFR_1                   HK               DOUBLE                             40 --                                                
 FREYBERG6/SFR_1                   SLOPE            DOUBLE                             40 --                                                
 FREYBERG6/SFR_1                   NCONNREACH       INTEGER                            40 --                                                
 FREYBERG6/SFR_1                   USTRF            DOUBLE                             40 --                                                
 FREYBERG6/SFR_1                   FTOTND           DOUBLE                             40 --                                                
 FREYBERG6/SFR_1                   NDIV             INTEGER                            40 --                                                
 FREYBERG6/SFR_1                   USFLOW           DOUBLE                             40 --                                                
 FREYBERG6/SFR_1                   DSFLOW           DOUBLE                             40 --                                                
 FREYBERG6/SFR_1                   DEPTH            DOUBLE                             40 --                                                
 FREYBERG6/SFR_1                   STAGE            DOUBLE                             40 --                                                
 FREYBERG6/SFR_1                   GWFLOW           DOUBLE                             40 --                                                
 FREYBERG6/SFR_1                   SIMEVAP          DOUBLE                             40 --                                                
 FREYBERG6/SFR_1                   SIMRUNOFF        DOUBLE                             40 --                                                
 FREYBERG6/SFR_1                   STAGE0           DOUBLE                             40 --                                                
 FREYBERG6/SFR_1                   USFLOW0          DOUBLE                             40 --                                                
 FREYBERG6/SFR_1                   ISFRORDER        INTEGER                            40 --                                                
 FREYBERG6/SFR_1                   IA               INTEGER                            41 --                                                
 FREYBERG6/SFR_1                   JA               INTEGER                           118 --                                                
 FREYBERG6/SFR_1                   IDIR             INTEGER                           118 --                                                
 FREYBERG6/SFR_1                   IDIV             INTEGER                           118 --                                                
 FREYBERG6/SFR_1                   QCONN            DOUBLE                            118 --                                                
[...]
 FREYBERG6/SFR_1                   DENSETERMS       DOUBLE                              0 --                                                
 SLN_1                             IA               INTEGER                           707 --                                                
 SLN_1                             X                DOUBLE                            706 --                                                
 SLN_1                             RHS              DOUBLE                            706 --                                                
 SLN_1                             IACTIVE          INTEGER                           706 --                                                
 SLN_1                             XTEMP            DOUBLE                            706 --                                                
 SLN_1                             DXOLD            DOUBLE                            706 --                                                
 SLN_1                             HNCG             DOUBLE                            100 --                                                
 SLN_1                             LRCH             INTEGER                           300 --                                                
 SLN_1                             WSAVE            DOUBLE                            706 --                                                
 SLN_1                             HCHOLD           DOUBLE                            706 --                                                
 SLN_1                             DEOLD            DOUBLE                            706 --                                                
 SLN_1                             CONVMODSTART     INTEGER                             2 --                                                
 SLN_1                             LOCDV            INTEGER                             1 --                                                
 SLN_1                             LOCDR            INTEGER                             1 --                                                
 SLN_1                             ITINNER          INTEGER                             1 --                                                
 SLN_1                             CONVLOCDV        INTEGER                             1 --                                                
 SLN_1                             CONVLOCDR        INTEGER                             1 --                                                
 SLN_1                             DVMAX            DOUBLE                              1 --                                                
 SLN_1                             DRMAX            DOUBLE                              1 --                                                
 SLN_1                             CONVDVMAX        DOUBLE                              1 --                                                
 SLN_1                             CONVDRMAX        DOUBLE                              1 --                                                
 FREYBERG6                         X                DOUBLE                            706 SLN_1/X                                           
 FREYBERG6                         RHS              DOUBLE                            706 SLN_1/RHS                                         
 FREYBERG6                         IBOUND           INTEGER                           706 SLN_1/IBOUND                                      
 SLN_1                             JA               INTEGER                          3372 --                                                
 SLN_1                             AMAT             DOUBLE                           3372 --                                                
 FREYBERG6/IC                      STRT             DOUBLE                            706 --                                                
 FREYBERG6/NPF                     ITHICKSTARTFLAG  INTEGER                           706 --                                                
 FREYBERG6/NPF                     ICELLTYPE        INTEGER                           706 --                                                
 FREYBERG6/NPF                     K11              DOUBLE                            706 --                                                
 FREYBERG6/NPF                     SAT              DOUBLE                            706 --                                                
 FREYBERG6/NPF                     CONDSAT          DOUBLE                           1333 --                                                
 FREYBERG6/NPF                     K22              DOUBLE                            706 FREYBERG6/NPF/K11                                 
 FREYBERG6/NPF                     K33              DOUBLE                            706 --                                                
 FREYBERG6/NPF                     WETDRY           DOUBLE                              1 --                                                
 FREYBERG6/NPF                     ANGLE1           DOUBLE                              1 --                                                
 FREYBERG6/NPF                     ANGLE2           DOUBLE                              1 --                                                
 FREYBERG6/NPF                     ANGLE3           DOUBLE                              1 --                                                
 FREYBERG6/NPF                     IBOTNODE         INTEGER                             0 --                                                
 FREYBERG6/NPF                     SPDIS            DOUBLE                              0 --                                                
 FREYBERG6/NPF                     NODEDGE          INTEGER                             0 --                                                
 FREYBERG6/NPF                     IHCEDGE          INTEGER                             0 --                                                
 FREYBERG6/NPF                     PROPSEDGE        DOUBLE                              0 --                                                
 FREYBERG6/NPF                     NODEKCHANGE      INTEGER                           706 --                                                
 FREYBERG6/STO                     ICONVERT         INTEGER                           706 --                                                
 FREYBERG6/STO                     SS               DOUBLE                            706 --                                                
 FREYBERG6/STO                     SY               DOUBLE                            706 --                                                
 FREYBERG6/STO                     STRGSS           DOUBLE                            706 --                                                
 FREYBERG6/STO                     STRGSY           DOUBLE                            706 --                                                
 FREYBERG6/WEL-1                   NODELIST         INTEGER                             6 --                                                
 FREYBERG6/WEL-1                   NOUPDATEAUXVAR   INTEGER                             0 --                                                
 FREYBERG6/WEL-1                   BOUND            DOUBLE                              6 --                                                
 FREYBERG6/WEL-1                   HCOF             DOUBLE                              6 --                                                
 FREYBERG6/WEL-1                   RHS              DOUBLE                              6 --                                                
 FREYBERG6/WEL-1                   SIMVALS          DOUBLE                              6 --                                                
 FREYBERG6/WEL-1                   SIMTOMVR         DOUBLE                              0 --                                                
 FREYBERG6/WEL-1                   AUXVAR           DOUBLE                              0 --                                                
 FREYBERG6/WEL-1                   BOUNDNAME        STRING LEN=40                       0 --                                                
 FREYBERG6/GHB-1                   NODELIST         INTEGER                            10 --                                                
 FREYBERG6/GHB-1                   NOUPDATEAUXVAR   INTEGER                             0 --                                                
 FREYBERG6/GHB-1                   BOUND            DOUBLE                             20 --                                                
 FREYBERG6/GHB-1                   HCOF             DOUBLE                             10 --                                                
 FREYBERG6/GHB-1                   RHS              DOUBLE                             10 --                                                
 FREYBERG6/GHB-1                   SIMVALS          DOUBLE                             10 --                                                
 FREYBERG6/GHB-1                   SIMTOMVR         DOUBLE                              0 --                                                
 FREYBERG6/GHB-1                   AUXVAR           DOUBLE                              0 --                                                
 FREYBERG6/GHB-1                   BOUNDNAME        STRING LEN=40                       0 --                                                
 FREYBERG6/RCH-1                   NODELIST         INTEGER                           800 --                                                
 FREYBERG6/RCH-1                   NOUPDATEAUXVAR   INTEGER                             0 --                                                
 FREYBERG6/RCH-1                   BOUND            DOUBLE                            800 --                                                
 FREYBERG6/RCH-1                   HCOF             DOUBLE                            800 --                                                
 FREYBERG6/RCH-1                   RHS              DOUBLE                            800 --                                                
 FREYBERG6/RCH-1                   SIMVALS          DOUBLE                            800 --                                                
 FREYBERG6/RCH-1                   SIMTOMVR         DOUBLE                              0 --                                                
 FREYBERG6/RCH-1                   AUXVAR           DOUBLE                              0 --                                                
 FREYBERG6/RCH-1                   BOUNDNAME        STRING LEN=40                       0 --                                                
 FREYBERG6/SFR_1                   NODELIST         INTEGER                            40 --                                                
 FREYBERG6/SFR_1                   NOUPDATEAUXVAR   INTEGER                             0 --                                                
 FREYBERG6/SFR_1                   BOUND            DOUBLE                            160 --                                                
 FREYBERG6/SFR_1                   HCOF             DOUBLE                             40 --                                                
 FREYBERG6/SFR_1                   RHS              DOUBLE                             40 --                                                
 FREYBERG6/SFR_1                   SIMVALS          DOUBLE                             40 --                                                
 FREYBERG6/SFR_1                   SIMTOMVR         DOUBLE                              0 --                                                
 FREYBERG6/SFR_1                   AUXVAR           DOUBLE                              0 --                                                
 FREYBERG6/SFR_1                   BOUNDNAME        STRING LEN=40                    1600 --                                                
 SLN_1/IMSLinear                   IOUT             INTEGER                             1 --                                                
 SLN_1/IMSLinear                   ILINMETH         INTEGER                             1 --                                                
 SLN_1/IMSLinear                   ITER1            INTEGER                             1 --                                                
 SLN_1/IMSLinear                   IPC              INTEGER                             1 --                                                
 SLN_1/IMSLinear                   ISCL             INTEGER                             1 --                                                
 SLN_1/IMSLinear                   IORD             INTEGER                             1 --                                                
 SLN_1/IMSLinear                   NORTH            INTEGER                             1 --                                                
 SLN_1/IMSLinear                   ICNVGOPT         INTEGER                             1 --                                                
 SLN_1/IMSLinear                   IACPC            INTEGER                             1 --                                                
 SLN_1/IMSLinear                   NITERC           INTEGER                             1 --                                                
 SLN_1/IMSLinear                   NIABCGS          INTEGER                             1 --                                                
 SLN_1/IMSLinear                   NIAPC            INTEGER                             1 --                                                
 SLN_1/IMSLinear                   NJAPC            INTEGER                             1 --                                                
 SLN_1/IMSLinear                   DVCLOSE          DOUBLE                              1 --                                                
 SLN_1/IMSLinear                   RCLOSE           DOUBLE                              1 --                                                
 SLN_1/IMSLinear                   RELAX            DOUBLE                              1 --                                                
 SLN_1/IMSLinear                   EPFACT           DOUBLE                              1 --                                                
 SLN_1/IMSLinear                   L2NORM0          DOUBLE                              1 --                                                
 SLN_1/IMSLinear                   DROPTOL          DOUBLE                              1 --                                                
 SLN_1/IMSLinear                   LEVEL            INTEGER                             1 --                                                
 SLN_1/IMSLinear                   NJLU             INTEGER                             1 --                                                
 SLN_1/IMSLinear                   NJW              INTEGER                             1 --                                                
 SLN_1/IMSLinear                   NWLU             INTEGER                             1 --                                                
 SLN_1/IMSLinear                   DSCALE           DOUBLE                              1 --                                                
 SLN_1/IMSLinear                   DSCALE2          DOUBLE                              1 --                                                
 SLN_1/IMSLinear                   IAPC             INTEGER                           707 --                                                
 SLN_1/IMSLinear                   JAPC             INTEGER                          2118 --                                                
 SLN_1/IMSLinear                   APC              DOUBLE                           2118 --                                                
 SLN_1/IMSLinear                   IW               INTEGER                           706 --                                                
 SLN_1/IMSLinear                   W                DOUBLE                            706 --                                                
 SLN_1/IMSLinear                   JLU              INTEGER                          2118 --                                                
 SLN_1/IMSLinear                   JW               INTEGER                          1412 --                                                
 SLN_1/IMSLinear                   WLU              DOUBLE                            707 --                                                
 SLN_1/IMSLinear                   LORDER           INTEGER                           706 --                                                
 SLN_1/IMSLinear                   IORDER           INTEGER                           706 --                                                
 SLN_1/IMSLinear                   IARO             INTEGER                           707 --                                                
 SLN_1/IMSLinear                   JARO             INTEGER                          3372 --                                                
 SLN_1/IMSLinear                   ARO              DOUBLE                           3372 --                                                
 SLN_1/IMSLinear                   ID               INTEGER                           706 --                                                
 SLN_1/IMSLinear                   D                DOUBLE                            706 --                                                
 SLN_1/IMSLinear                   P                DOUBLE                            706 --                                                
 SLN_1/IMSLinear                   Q                DOUBLE                            706 --                                                
 SLN_1/IMSLinear                   Z                DOUBLE                            706 --                                                
 SLN_1/IMSLinear                   T                DOUBLE                            706 --                                                
 SLN_1/IMSLinear                   V                DOUBLE                            706 --                                                
 SLN_1/IMSLinear                   DHAT             DOUBLE                            706 --                                                
 SLN_1/IMSLinear                   PHAT             DOUBLE                            706 --                                                
 SLN_1/IMSLinear                   QHAT             DOUBLE                            706 --                                                
 -------------------------------------------------------------------------------------------------------------------------------------------



 MEMORY MANAGER TOTAL STORAGE BY DATA TYPE, IN KILOBYTES
 -------------------------------
                    ALLOCATED   
 DATA TYPE           MEMORY     
 -------------------------------
 Character        5.7330000     
 Logical          4.40000000E-02
 Integer          184.09600     
 Real             380.04000     
 -------------------------------
 Total            569.91300     
 -------------------------------


 
 Run end date and time (yyyy/mm/dd hh:mm:ss): 2023/04/18 14:30:53
 Elapsed run time:  0.066 Seconds

WARNING REPORT:

  1. NONLINEAR BLOCK VARIABLE 'OUTER_HCLOSE' IN FILE 'freyberg6.ims' WAS
     DEPRECATED IN VERSION 6.1.1. SETTING OUTER_DVCLOSE TO OUTER_HCLOSE VALUE.
  2. LINEAR BLOCK VARIABLE 'INNER_HCLOSE' IN FILE 'freyberg6.ims' WAS
     DEPRECATED IN VERSION 6.1.1. SETTING INNER_DVCLOSE TO INNER_HCLOSE VALUE.
 Normal termination of simulation.
