                                   MODFLOW 6
                U.S. GEOLOGICAL SURVEY MODULAR HYDROLOGIC MODEL
                   VERSION 6.3.0 release candidate 07/30/2021
                               ***DEVELOP MODE***

   MODFLOW 6 compiled Jan 20 2022 09:18:14 with Intel(R) Fortran Intel(R) 64
 Compiler Classic for applications running on Intel(R) 64, Version 2021.1 Build
                                20201112_000000

This software is preliminary or provisional and is subject to 
revision. It is being provided to meet the need for timely best 
science. The software has not received final approval by the U.S. 
Geological Survey (USGS). No warranty, expressed or implied, is made 
by the USGS or the U.S. Government as to the functionality of the 
software and related material nor shall the fact of release 
constitute any such warranty. The software is provided on the 
condition that neither the USGS nor the U.S. Government shall be held 
liable for any damages resulting from the authorized or unauthorized 
use of the software.

 
 Run start date and time (yyyy/mm/dd hh:mm:ss): 2023/02/03 11:34:00
 
 Writing simulation list file: mfsim.lst
 Using Simulation name file: mfsim.nam
 
