                                   MODFLOW 6
                U.S. GEOLOGICAL SURVEY MODULAR HYDROLOGIC MODEL
                            VERSION 6.2.2 07/30/2021

   MODFLOW 6 compiled Jul 31 2021 14:59:11 with IFORT compiler (ver. 20.21.2)

This software has been approved for release by the U.S. Geological 
Survey (USGS). Although the software has been subjected to rigorous 
review, the USGS reserves the right to update the software as needed 
pursuant to further analysis and review. No warranty, expressed or 
implied, is made by the USGS or the U.S. Government as to the 
functionality of the software and related material nor shall the 
fact of release constitute any such warranty. Furthermore, the 
software is released on condition that neither the USGS nor the U.S. 
Government shall be held liable for any damages resulting from its 
authorized or unauthorized use. Also refer to the USGS Water 
Resources Software User Rights Notice for complete use, copyright, 
and distribution information.


System command used to initiate simulation:
D:\Miniconda3\envs\geopy38\python.exe "C:\Program Files\JetBrains\PyCharm Community Edition 2021.1.1\plugins\python-ce\helpers\pydev\pydevconsole.py" --mode=client --port=55769

MODFLOW was compiled using uniform precision.

Real Variables
  KIND: 8
  TINY (smallest non-zero value):    2.225074-308
  HUGE (largest value):    1.797693+308
  PRECISION: 15
  BIT SIZE: 64

Integer Variables
  KIND: 4
  HUGE (largest value): 2147483647
  BIT SIZE: 32

Long Integer Variables
  KIND: 8
  HUGE (largest value): 9223372036854775807
  BIT SIZE: 64

Logical Variables
  KIND: 4
  BIT SIZE: 32
 

 OPENED mfsim.nam
 FILE TYPE:NAM   UNIT 1002   STATUS:OLD                 
 FORMAT:FORMATTED              ACCESS:SEQUENTIAL          
 ACTION:READ                

 # File generated by Flopy version 3.3.4 on 05/23/2022 at 17:06:54.

 READING SIMULATION OPTIONS
    ALL SIMULATION MEMORY INFORMATION WILL BE WRITTEN.
 END OF SIMULATION OPTIONS

 READING SIMULATION TIMING

 OPENED GWF_2D_SS.tdis
 FILE TYPE:TDIS   UNIT 1003   STATUS:OLD                 
 FORMAT:FORMATTED              ACCESS:SEQUENTIAL          
 ACTION:READ                


 TDIS -- TEMPORAL DISCRETIZATION PACKAGE,
 VERSION 1 : 11/13/2014 - INPUT READ FROM UNIT 1003
 # File generated by Flopy version 3.3.4 on 05/23/2022 at 17:06:54.
 PROCESSING TDIS OPTIONS
    SIMULATION TIME UNIT IS DAYS
 END OF TDIS OPTIONS
 PROCESSING TDIS DIMENSIONS
    1 STRESS PERIOD(S) IN SIMULATION
 END OF TDIS DIMENSIONS
 PROCESSING TDIS PERIODDATA


 STRESS PERIOD     LENGTH       TIME STEPS     MULTIPLIER FOR DELT
 ----------------------------------------------------------------------------
        1         1.000000          1                    1.000
 END OF TDIS PERIODDATA
 END OF SIMULATION TIMING

 READING SIMULATION MODELS
    GWF6 model GWF_2D_SS will be created as model 1
 END OF SIMULATION MODELS

 READING SIMULATION EXCHANGES
 END OF SIMULATION EXCHANGES

 READING SOLUTIONGROUP

 Creating solution: SLN_1           

 OPENED GWF_2D_SS.ims
 FILE TYPE:IMS   UNIT 1013   STATUS:OLD                 
 FORMAT:FORMATTED              ACCESS:SEQUENTIAL          
 ACTION:READ                

 END OF SIMULATION SOLUTIONGROUP

 IMS -- ITERATIVE MODEL SOLUTION PACKAGE, VERSION 6, 4/28/2017
         INPUT READ FROM UNIT 1013
 # File generated by Flopy version 3.3.4 on 05/23/2022 at 17:06:54.

 PROCESSING IMS OPTIONS
 SIMPLE OPTION:
 DEFAULT SOLVER INPUT VALUES FOR FAST SOLUTIONS
 END OF IMS OPTIONS
 ***UNDER-RELAXATION WILL NOT BE USED***
 
 ***IMS LINEAR SOLVER WILL BE USED***

 IMSLINEAR -- UNSTRUCTURED LINEAR SOLUTION PACKAGE, VERSION 8, 04/28/2017

 PROCESSING LINEAR DATA
 END OF LINEAR DATA
 
 OUTER ITERATION CONVERGENCE CRITERION    (DVCLOSE) =    0.100000E-02
 MAXIMUM NUMBER OF OUTER ITERATIONS        (MXITER) = 25
 SOLVER PRINTOUT INDEX                     (IPRIMS) = 0
 NONLINEAR ITERATION METHOD            (NONLINMETH) = 0
 LINEAR SOLUTION METHOD                   (LINMETH) = 1

       SOLUTION BY THE BICONJUGATE-GRADIENT STABILIZED METHOD
 ------------------------------------------------------------------
 MAXIMUM OF 25 CALLS OF SOLUTION ROUTINE
 MAXIMUM OF 50 INTERNAL ITERATIONS PER CALL TO SOLUTION ROUTINE
 LINEAR ACCELERATION METHOD            = BCGS      
 MATRIX PRECONDITIONING TYPE           = INCOMPLETE LU       
 MATRIX SCALING APPROACH               = NO SCALING          
 MATRIX REORDERING APPROACH            = ORIGINAL ORDERING        
 NUMBER OF ORTHOGONALIZATIONS          = 0
 HEAD CHANGE CRITERION FOR CLOSURE     =    0.10000E-02
 RESIDUAL CHANGE CRITERION FOR CLOSURE =    0.10000E+00
 RESIDUAL CONVERGENCE OPTION           = 0
 RESIDUAL CONVERGENCE NORM             = INFINITY NORM   
 RELAXATION FACTOR                     =    0.00000E+00



 
    Solving:  Stress period:     1    Time step:     1
 
1
                            STRESS PERIOD NO. 1, LENGTH =   1.000000    
                            -----------------------------------------------
                            NUMBER OF TIME STEPS = 1
                            MULTIPLIER FOR DELT =     1.000
                            INITIAL TIME STEP SIZE =   1.000000    

 DETAILED INFORMATION ON VARIABLES STORED IN THE MEMORY MANAGER
 -------------------------------------------------------------------------------------------------------------------------------------------
 ORIGIN                            VARIABLE NAME    DATA TYPE             NUMBER OF ITEMS ASSOCIATED VARIABLE                               
 -------------------------------------------------------------------------------------------------------------------------------------------
 TDIS                              NPER             INTEGER                             1 --                                                
 TDIS                              ITMUNI           INTEGER                             1 --                                                
 TDIS                              KPER             INTEGER                             1 --                                                
 TDIS                              KSTP             INTEGER                             1 --                                                
 TDIS                              INATS            INTEGER                             1 --                                                
 TDIS                              READNEWDATA      LOGICAL                             1 --                                                
 TDIS                              ENDOFPERIOD      LOGICAL                             1 --                                                
 TDIS                              ENDOFSIMULATION  LOGICAL                             1 --                                                
 TDIS                              DELT             DOUBLE                              1 --                                                
 TDIS                              PERTIM           DOUBLE                              1 --                                                
 TDIS                              TOTIM            DOUBLE                              1 --                                                
 TDIS                              TOTIMC           DOUBLE                              1 --                                                
 TDIS                              DELTSAV          DOUBLE                              1 --                                                
 TDIS                              TOTIMSAV         DOUBLE                              1 --                                                
 TDIS                              PERTIMSAV        DOUBLE                              1 --                                                
 TDIS                              TOTALSIMTIME     DOUBLE                              1 --                                                
 TDIS                              PERLEN           DOUBLE                              1 --                                                
 TDIS                              NSTP             INTEGER                             1 --                                                
 TDIS                              TSMULT           DOUBLE                              1 --                                                
 GWF_2D_SS                         ID               INTEGER                             1 --                                                
 GWF_2D_SS                         IOUT             INTEGER                             1 --                                                
 GWF_2D_SS                         INEWTON          INTEGER                             1 --                                                
 GWF_2D_SS                         IPRPAK           INTEGER                             1 --                                                
 GWF_2D_SS                         IPRFLOW          INTEGER                             1 --                                                
 GWF_2D_SS                         IPAKCB           INTEGER                             1 --                                                
 GWF_2D_SS                         IDSOLN           INTEGER                             1 --                                                
 GWF_2D_SS                         NEQ              INTEGER                             1 --                                                
 GWF_2D_SS                         NJA              INTEGER                             1 --                                                
 GWF_2D_SS                         ICNVG            INTEGER                             1 --                                                
 GWF_2D_SS                         MOFFSET          INTEGER                             1 --                                                
 GWF_2D_SS                         INIC             INTEGER                             1 --                                                
 GWF_2D_SS                         INOC             INTEGER                             1 --                                                
 GWF_2D_SS                         INNPF            INTEGER                             1 --                                                
 GWF_2D_SS                         INBUY            INTEGER                             1 --                                                
 GWF_2D_SS                         INSTO            INTEGER                             1 --                                                
 GWF_2D_SS                         INCSUB           INTEGER                             1 --                                                
 GWF_2D_SS                         INMVR            INTEGER                             1 --                                                
 GWF_2D_SS                         INHFB            INTEGER                             1 --                                                
 GWF_2D_SS                         INGNC            INTEGER                             1 --                                                
 GWF_2D_SS                         INOBS            INTEGER                             1 --                                                
 GWF_2D_SS                         ISS              INTEGER                             1 --                                                
 GWF_2D_SS                         INEWTONUR        INTEGER                             1 --                                                
 GWF_2D_SS/DIS                     INUNIT           INTEGER                             1 --                                                
 GWF_2D_SS/DIS                     IOUT             INTEGER                             1 --                                                
 GWF_2D_SS/DIS                     NODES            INTEGER                             1 --                                                
 GWF_2D_SS/DIS                     NODESUSER        INTEGER                             1 --                                                
 GWF_2D_SS/DIS                     NDIM             INTEGER                             1 --                                                
 GWF_2D_SS/DIS                     ICONDIR          INTEGER                             1 --                                                
 GWF_2D_SS/DIS                     WRITEGRB         LOGICAL                             1 --                                                
 GWF_2D_SS/DIS                     XORIGIN          DOUBLE                              1 --                                                
 GWF_2D_SS/DIS                     YORIGIN          DOUBLE                              1 --                                                
 GWF_2D_SS/DIS                     ANGROT           DOUBLE                              1 --                                                
 GWF_2D_SS/DIS                     NJA              INTEGER                             1 --                                                
 GWF_2D_SS/DIS                     NJAS             INTEGER                             1 --                                                
 GWF_2D_SS/DIS                     LENUNI           INTEGER                             1 --                                                
 GWF_2D_SS/DIS                     NLAY             INTEGER                             1 --                                                
 GWF_2D_SS/DIS                     NROW             INTEGER                             1 --                                                
 GWF_2D_SS/DIS                     NCOL             INTEGER                             1 --                                                
 GWF_2D_SS/NPF                     ID               INTEGER                             1 --                                                
 GWF_2D_SS/NPF                     INUNIT           INTEGER                             1 --                                                
 GWF_2D_SS/NPF                     IOUT             INTEGER                             1 --                                                
 GWF_2D_SS/NPF                     INEWTON          INTEGER                             1 --                                                
 GWF_2D_SS/NPF                     IASYM            INTEGER                             1 --                                                
 GWF_2D_SS/NPF                     IPRPAK           INTEGER                             1 --                                                
 GWF_2D_SS/NPF                     IPRFLOW          INTEGER                             1 --                                                
 GWF_2D_SS/NPF                     IPAKCB           INTEGER                             1 --                                                
 GWF_2D_SS/NPF                     IONPER           INTEGER                             1 --                                                
 GWF_2D_SS/NPF                     LASTONPER        INTEGER                             1 --                                                
 GWF_2D_SS/NPF                     INAME            INTEGER                             1 --                                                
 GWF_2D_SS/NPF                     IXT3D            INTEGER                             1 --                                                
 GWF_2D_SS/NPF                     SATOMEGA         DOUBLE                              1 --                                                
 GWF_2D_SS/NPF                     HNOFLO           DOUBLE                              1 --                                                
 GWF_2D_SS/NPF                     HDRY             DOUBLE                              1 --                                                
 GWF_2D_SS/NPF                     ICELLAVG         INTEGER                             1 --                                                
 GWF_2D_SS/NPF                     IAVGKEFF         INTEGER                             1 --                                                
 GWF_2D_SS/NPF                     IK22             INTEGER                             1 --                                                
 GWF_2D_SS/NPF                     IK33             INTEGER                             1 --                                                
 GWF_2D_SS/NPF                     IK22OVERK        INTEGER                             1 --                                                
 GWF_2D_SS/NPF                     IK33OVERK        INTEGER                             1 --                                                
 GWF_2D_SS/NPF                     IPERCHED         INTEGER                             1 --                                                
 GWF_2D_SS/NPF                     IVARCV           INTEGER                             1 --                                                
 GWF_2D_SS/NPF                     IDEWATCV         INTEGER                             1 --                                                
 GWF_2D_SS/NPF                     ITHICKSTRT       INTEGER                             1 --                                                
 GWF_2D_SS/NPF                     IUSGNRHC         INTEGER                             1 --                                                
 GWF_2D_SS/NPF                     INWTUPW          INTEGER                             1 --                                                
 GWF_2D_SS/NPF                     ICALCSPDIS       INTEGER                             1 --                                                
 GWF_2D_SS/NPF                     ISAVSPDIS        INTEGER                             1 --                                                
 GWF_2D_SS/NPF                     ISAVSAT          INTEGER                             1 --                                                
 GWF_2D_SS/NPF                     IREWET           INTEGER                             1 --                                                
 GWF_2D_SS/NPF                     WETFCT           DOUBLE                              1 --                                                
 GWF_2D_SS/NPF                     IWETIT           INTEGER                             1 --                                                
 GWF_2D_SS/NPF                     IHDWET           INTEGER                             1 --                                                
 GWF_2D_SS/NPF                     SATMIN           DOUBLE                              1 --                                                
 GWF_2D_SS/NPF                     IANGLE1          INTEGER                             1 --                                                
 GWF_2D_SS/NPF                     IANGLE2          INTEGER                             1 --                                                
 GWF_2D_SS/NPF                     IANGLE3          INTEGER                             1 --                                                
 GWF_2D_SS/NPF                     IWETDRY          INTEGER                             1 --                                                
 GWF_2D_SS/NPF                     NEDGES           INTEGER                             1 --                                                
 GWF_2D_SS/NPF                     LASTEDGE         INTEGER                             1 --                                                
 GWF_2D_SS/XT3D                    IXT3D            INTEGER                             1 --                                                
 GWF_2D_SS/XT3D                    NBRMAX           INTEGER                             1 --                                                
 GWF_2D_SS/XT3D                    INUNIT           INTEGER                             1 --                                                
 GWF_2D_SS/XT3D                    IOUT             INTEGER                             1 --                                                
 GWF_2D_SS/XT3D                    INEWTON          INTEGER                             1 --                                                
 GWF_2D_SS/XT3D                    NUMEXTNBRS       INTEGER                             1 --                                                
 GWF_2D_SS/XT3D                    NOZEE            LOGICAL                             1 --                                                
 GWF_2D_SS/XT3D                    VCTHRESH         DOUBLE                              1 --                                                
 GWF_2D_SS/XT3D                    LAMATSAVED       LOGICAL                             1 --                                                
 GWF_2D_SS/XT3D                    LDISPERSION      LOGICAL                             1 --                                                
 GWF_2D_SS/BUY                     ID               INTEGER                             1 --                                                
 GWF_2D_SS/BUY                     INUNIT           INTEGER                             1 --                                                
 GWF_2D_SS/BUY                     IOUT             INTEGER                             1 --                                                
 GWF_2D_SS/BUY                     INEWTON          INTEGER                             1 --                                                
 GWF_2D_SS/BUY                     IASYM            INTEGER                             1 --                                                
 GWF_2D_SS/BUY                     IPRPAK           INTEGER                             1 --                                                
 GWF_2D_SS/BUY                     IPRFLOW          INTEGER                             1 --                                                
 GWF_2D_SS/BUY                     IPAKCB           INTEGER                             1 --                                                
 GWF_2D_SS/BUY                     IONPER           INTEGER                             1 --                                                
 GWF_2D_SS/BUY                     LASTONPER        INTEGER                             1 --                                                
 GWF_2D_SS/BUY                     IOUTDENSE        INTEGER                             1 --                                                
 GWF_2D_SS/BUY                     IFORM            INTEGER                             1 --                                                
 GWF_2D_SS/BUY                     IREADELEV        INTEGER                             1 --                                                
 GWF_2D_SS/BUY                     IREADCONCBUY     INTEGER                             1 --                                                
 GWF_2D_SS/BUY                     ICONCSET         INTEGER                             1 --                                                
 GWF_2D_SS/BUY                     DENSEREF         DOUBLE                              1 --                                                
 GWF_2D_SS/BUY                     NRHOSPECIES      INTEGER                             1 --                                                
 GWF_2D_SS/GNC                     ID               INTEGER                             1 --                                                
 GWF_2D_SS/GNC                     INUNIT           INTEGER                             1 --                                                
 GWF_2D_SS/GNC                     IOUT             INTEGER                             1 --                                                
 GWF_2D_SS/GNC                     INEWTON          INTEGER                             1 --                                                
 GWF_2D_SS/GNC                     IASYM            INTEGER                             1 --                                                
 GWF_2D_SS/GNC                     IPRPAK           INTEGER                             1 --                                                
 GWF_2D_SS/GNC                     IPRFLOW          INTEGER                             1 --                                                
 GWF_2D_SS/GNC                     IPAKCB           INTEGER                             1 --                                                
 GWF_2D_SS/GNC                     IONPER           INTEGER                             1 --                                                
 GWF_2D_SS/GNC                     LASTONPER        INTEGER                             1 --                                                
 GWF_2D_SS/GNC                     SMGNC            LOGICAL                             1 --                                                
 GWF_2D_SS/GNC                     IMPLICIT         LOGICAL                             1 --                                                
 GWF_2D_SS/GNC                     I2KN             LOGICAL                             1 --                                                
 GWF_2D_SS/GNC                     NEXG             INTEGER                             1 --                                                
 GWF_2D_SS/GNC                     NUMJS            INTEGER                             1 --                                                
 GWF_2D_SS/HFB                     ID               INTEGER                             1 --                                                
 GWF_2D_SS/HFB                     INUNIT           INTEGER                             1 --                                                
 GWF_2D_SS/HFB                     IOUT             INTEGER                             1 --                                                
 GWF_2D_SS/HFB                     INEWTON          INTEGER                             1 --                                                
 GWF_2D_SS/HFB                     IASYM            INTEGER                             1 --                                                
 GWF_2D_SS/HFB                     IPRPAK           INTEGER                             1 --                                                
 GWF_2D_SS/HFB                     IPRFLOW          INTEGER                             1 --                                                
 GWF_2D_SS/HFB                     IPAKCB           INTEGER                             1 --                                                
 GWF_2D_SS/HFB                     IONPER           INTEGER                             1 --                                                
 GWF_2D_SS/HFB                     LASTONPER        INTEGER                             1 --                                                
 GWF_2D_SS/HFB                     MAXHFB           INTEGER                             1 --                                                
 GWF_2D_SS/HFB                     NHFB             INTEGER                             1 --                                                
 GWF_2D_SS/STO                     ID               INTEGER                             1 --                                                
 GWF_2D_SS/STO                     INUNIT           INTEGER                             1 --                                                
 GWF_2D_SS/STO                     IOUT             INTEGER                             1 --                                                
 GWF_2D_SS/STO                     INEWTON          INTEGER                             1 --                                                
 GWF_2D_SS/STO                     IASYM            INTEGER                             1 --                                                
 GWF_2D_SS/STO                     IPRPAK           INTEGER                             1 --                                                
 GWF_2D_SS/STO                     IPRFLOW          INTEGER                             1 --                                                
 GWF_2D_SS/STO                     IPAKCB           INTEGER                             1 --                                                
 GWF_2D_SS/STO                     IONPER           INTEGER                             1 --                                                
 GWF_2D_SS/STO                     LASTONPER        INTEGER                             1 --                                                
 GWF_2D_SS/STO                     ISTOR_COEF       INTEGER                             1 --                                                
 GWF_2D_SS/STO                     ICONF_SS         INTEGER                             1 --                                                
 GWF_2D_SS/STO                     IORIG_SS         INTEGER                             1 --                                                
 GWF_2D_SS/STO                     IUSESY           INTEGER                             1 --                                                
 GWF_2D_SS/STO                     SATOMEGA         DOUBLE                              1 --                                                
 GWF_2D_SS/CSUB                    ID               INTEGER                             1 --                                                
 GWF_2D_SS/CSUB                    INUNIT           INTEGER                             1 --                                                
 GWF_2D_SS/CSUB                    IOUT             INTEGER                             1 --                                                
 GWF_2D_SS/CSUB                    INEWTON          INTEGER                             1 --                                                
 GWF_2D_SS/CSUB                    IASYM            INTEGER                             1 --                                                
 GWF_2D_SS/CSUB                    IPRPAK           INTEGER                             1 --                                                
 GWF_2D_SS/CSUB                    IPRFLOW          INTEGER                             1 --                                                
 GWF_2D_SS/CSUB                    IPAKCB           INTEGER                             1 --                                                
 GWF_2D_SS/CSUB                    IONPER           INTEGER                             1 --                                                
 GWF_2D_SS/CSUB                    LASTONPER        INTEGER                             1 --                                                
 GWF_2D_SS/CSUB                    LISTLABEL        STRING LEN=500                    500 --                                                
 GWF_2D_SS/CSUB                    STONAME          STRING LEN=33                      33 --                                                
 GWF_2D_SS/CSUB                    ISTOUNIT         INTEGER                             1 --                                                
 GWF_2D_SS/CSUB                    INOBSPKG         INTEGER                             1 --                                                
 GWF_2D_SS/CSUB                    NINTERBEDS       INTEGER                             1 --                                                
 GWF_2D_SS/CSUB                    MAXSIG0          INTEGER                             1 --                                                
 GWF_2D_SS/CSUB                    NBOUND           INTEGER                             1 --                                                
 GWF_2D_SS/CSUB                    ISCLOC           INTEGER                             1 --                                                
 GWF_2D_SS/CSUB                    IAUXMULTCOL      INTEGER                             1 --                                                
 GWF_2D_SS/CSUB                    NDELAYCELLS      INTEGER                             1 --                                                
 GWF_2D_SS/CSUB                    NDELAYBEDS       INTEGER                             1 --                                                
 GWF_2D_SS/CSUB                    INITIALIZED      INTEGER                             1 --                                                
 GWF_2D_SS/CSUB                    IESLAG           INTEGER                             1 --                                                
 GWF_2D_SS/CSUB                    IPCH             INTEGER                             1 --                                                
 GWF_2D_SS/CSUB                    LHEAD_BASED      LOGICAL                             1 --                                                
 GWF_2D_SS/CSUB                    IUPDATESTRESS    INTEGER                             1 --                                                
 GWF_2D_SS/CSUB                    ISPECIFIED_PCS   INTEGER                             1 --                                                
 GWF_2D_SS/CSUB                    ISPECIFIED_DBH   INTEGER                             1 --                                                
 GWF_2D_SS/CSUB                    INAMEDBOUND      INTEGER                             1 --                                                
 GWF_2D_SS/CSUB                    ICONVCHK         INTEGER                             1 --                                                
 GWF_2D_SS/CSUB                    NAUX             INTEGER                             1 --                                                
 GWF_2D_SS/CSUB                    ISTORAGEC        INTEGER                             1 --                                                
 GWF_2D_SS/CSUB                    ISTRAINIB        INTEGER                             1 --                                                
 GWF_2D_SS/CSUB                    ISTRAINSK        INTEGER                             1 --                                                
 GWF_2D_SS/CSUB                    IOUTCOMP         INTEGER                             1 --                                                
 GWF_2D_SS/CSUB                    IOUTCOMPI        INTEGER                             1 --                                                
 GWF_2D_SS/CSUB                    IOUTCOMPE        INTEGER                             1 --                                                
 GWF_2D_SS/CSUB                    IOUTCOMPIB       INTEGER                             1 --                                                
 GWF_2D_SS/CSUB                    IOUTCOMPS        INTEGER                             1 --                                                
 GWF_2D_SS/CSUB                    IOUTZDISP        INTEGER                             1 --                                                
 GWF_2D_SS/CSUB                    IPAKCSV          INTEGER                             1 --                                                
 GWF_2D_SS/CSUB                    IUPDATEMATPROP   INTEGER                             1 --                                                
 GWF_2D_SS/CSUB                    EPSILON          DOUBLE                              1 --                                                
 GWF_2D_SS/CSUB                    CC_CRIT          DOUBLE                              1 --                                                
 GWF_2D_SS/CSUB                    GAMMAW           DOUBLE                              1 --                                                
 GWF_2D_SS/CSUB                    BETA             DOUBLE                              1 --                                                
 GWF_2D_SS/CSUB                    BRG              DOUBLE                              1 --                                                
 GWF_2D_SS/CSUB                    SATOMEGA         DOUBLE                              1 --                                                
 GWF_2D_SS/CSUB                    ICELLF           INTEGER                             1 --                                                
 GWF_2D_SS/CSUB                    GWFISS0          INTEGER                             1 --                                                
 GWF_2D_SS/IC                      ID               INTEGER                             1 --                                                
 GWF_2D_SS/IC                      INUNIT           INTEGER                             1 --                                                
 GWF_2D_SS/IC                      IOUT             INTEGER                             1 --                                                
 GWF_2D_SS/IC                      INEWTON          INTEGER                             1 --                                                
 GWF_2D_SS/IC                      IASYM            INTEGER                             1 --                                                
 GWF_2D_SS/IC                      IPRPAK           INTEGER                             1 --                                                
 GWF_2D_SS/IC                      IPRFLOW          INTEGER                             1 --                                                
 GWF_2D_SS/IC                      IPAKCB           INTEGER                             1 --                                                
 GWF_2D_SS/IC                      IONPER           INTEGER                             1 --                                                
 GWF_2D_SS/IC                      LASTONPER        INTEGER                             1 --                                                
 GWF_2D_SS/MVR                     ID               INTEGER                             1 --                                                
 GWF_2D_SS/MVR                     INUNIT           INTEGER                             1 --                                                
 GWF_2D_SS/MVR                     IOUT             INTEGER                             1 --                                                
 GWF_2D_SS/MVR                     INEWTON          INTEGER                             1 --                                                
 GWF_2D_SS/MVR                     IASYM            INTEGER                             1 --                                                
 GWF_2D_SS/MVR                     IPRPAK           INTEGER                             1 --                                                
 GWF_2D_SS/MVR                     IPRFLOW          INTEGER                             1 --                                                
 GWF_2D_SS/MVR                     IPAKCB           INTEGER                             1 --                                                
 GWF_2D_SS/MVR                     IONPER           INTEGER                             1 --                                                
 GWF_2D_SS/MVR                     LASTONPER        INTEGER                             1 --                                                
 GWF_2D_SS/MVR                     IBUDGETOUT       INTEGER                             1 --                                                
 GWF_2D_SS/MVR                     MAXMVR           INTEGER                             1 --                                                
 GWF_2D_SS/MVR                     MAXPACKAGES      INTEGER                             1 --                                                
 GWF_2D_SS/MVR                     MAXCOMB          INTEGER                             1 --                                                
 GWF_2D_SS/MVR                     NMVR             INTEGER                             1 --                                                
 GWF_2D_SS/MVR                     IEXGMVR          INTEGER                             1 --                                                
 GWF_2D_SS/MVR                     IMODELNAMES      INTEGER                             1 --                                                
 GWF_2D_SS/OC                      INUNIT           INTEGER                             1 --                                                
 GWF_2D_SS/OC                      IOUT             INTEGER                             1 --                                                
 GWF_2D_SS/OC                      IPEROC           INTEGER                             1 --                                                
 GWF_2D_SS/OC                      IOCREP           INTEGER                             1 --                                                
 GWF_2D_SS/WEL_0                   ID               INTEGER                             1 --                                                
 GWF_2D_SS/WEL_0                   INUNIT           INTEGER                             1 --                                                
 GWF_2D_SS/WEL_0                   IOUT             INTEGER                             1 --                                                
 GWF_2D_SS/WEL_0                   INEWTON          INTEGER                             1 --                                                
 GWF_2D_SS/WEL_0                   IASYM            INTEGER                             1 --                                                
 GWF_2D_SS/WEL_0                   IPRPAK           INTEGER                             1 --                                                
 GWF_2D_SS/WEL_0                   IPRFLOW          INTEGER                             1 --                                                
 GWF_2D_SS/WEL_0                   IPAKCB           INTEGER                             1 --                                                
 GWF_2D_SS/WEL_0                   IONPER           INTEGER                             1 --                                                
 GWF_2D_SS/WEL_0                   LASTONPER        INTEGER                             1 --                                                
 GWF_2D_SS/WEL_0                   LISTLABEL        STRING LEN=500                    500 --                                                
 GWF_2D_SS/WEL_0                   ISADVPAK         INTEGER                             1 --                                                
 GWF_2D_SS/WEL_0                   IBCNUM           INTEGER                             1 --                                                
 GWF_2D_SS/WEL_0                   MAXBOUND         INTEGER                             1 --                                                
 GWF_2D_SS/WEL_0                   NBOUND           INTEGER                             1 --                                                
 GWF_2D_SS/WEL_0                   NCOLBND          INTEGER                             1 --                                                
 GWF_2D_SS/WEL_0                   ISCLOC           INTEGER                             1 --                                                
 GWF_2D_SS/WEL_0                   NAUX             INTEGER                             1 --                                                
 GWF_2D_SS/WEL_0                   INAMEDBOUND      INTEGER                             1 --                                                
 GWF_2D_SS/WEL_0                   IAUXMULTCOL      INTEGER                             1 --                                                
 GWF_2D_SS/WEL_0                   INOBSPKG         INTEGER                             1 --                                                
 GWF_2D_SS/WEL_0                   IMOVER           INTEGER                             1 --                                                
 GWF_2D_SS/WEL_0                   NPAKEQ           INTEGER                             1 --                                                
 GWF_2D_SS/WEL_0                   IOFFSET          INTEGER                             1 --                                                
 GWF_2D_SS/WEL_0                   AUXNAME          STRING LEN=16                       0 --                                                
 GWF_2D_SS/WEL_0                   IFLOWRED         INTEGER                             1 --                                                
 GWF_2D_SS/WEL_0                   FLOWRED          DOUBLE                              1 --                                                
 GWF_2D_SS/CHD_0                   ID               INTEGER                             1 --                                                
 GWF_2D_SS/CHD_0                   INUNIT           INTEGER                             1 --                                                
 GWF_2D_SS/CHD_0                   IOUT             INTEGER                             1 --                                                
 GWF_2D_SS/CHD_0                   INEWTON          INTEGER                             1 --                                                
 GWF_2D_SS/CHD_0                   IASYM            INTEGER                             1 --                                                
 GWF_2D_SS/CHD_0                   IPRPAK           INTEGER                             1 --                                                
 GWF_2D_SS/CHD_0                   IPRFLOW          INTEGER                             1 --                                                
 GWF_2D_SS/CHD_0                   IPAKCB           INTEGER                             1 --                                                
 GWF_2D_SS/CHD_0                   IONPER           INTEGER                             1 --                                                
 GWF_2D_SS/CHD_0                   LASTONPER        INTEGER                             1 --                                                
 GWF_2D_SS/CHD_0                   LISTLABEL        STRING LEN=500                    500 --                                                
 GWF_2D_SS/CHD_0                   ISADVPAK         INTEGER                             1 --                                                
 GWF_2D_SS/CHD_0                   IBCNUM           INTEGER                             1 --                                                
 GWF_2D_SS/CHD_0                   MAXBOUND         INTEGER                             1 --                                                
 GWF_2D_SS/CHD_0                   NBOUND           INTEGER                             1 --                                                
 GWF_2D_SS/CHD_0                   NCOLBND          INTEGER                             1 --                                                
 GWF_2D_SS/CHD_0                   ISCLOC           INTEGER                             1 --                                                
 GWF_2D_SS/CHD_0                   NAUX             INTEGER                             1 --                                                
 GWF_2D_SS/CHD_0                   INAMEDBOUND      INTEGER                             1 --                                                
 GWF_2D_SS/CHD_0                   IAUXMULTCOL      INTEGER                             1 --                                                
 GWF_2D_SS/CHD_0                   INOBSPKG         INTEGER                             1 --                                                
 GWF_2D_SS/CHD_0                   IMOVER           INTEGER                             1 --                                                
 GWF_2D_SS/CHD_0                   NPAKEQ           INTEGER                             1 --                                                
 GWF_2D_SS/CHD_0                   IOFFSET          INTEGER                             1 --                                                
 GWF_2D_SS/CHD_0                   AUXNAME          STRING LEN=16                       0 --                                                
 SLN_1                             ID               INTEGER                             1 --                                                
 SLN_1                             IU               INTEGER                             1 --                                                
 SLN_1                             TTFORM           DOUBLE                              1 --                                                
 SLN_1                             TTSOLN           DOUBLE                              1 --                                                
 SLN_1                             NEQ              INTEGER                             1 --                                                
 SLN_1                             NJA              INTEGER                             1 --                                                
 SLN_1                             DVCLOSE          DOUBLE                              1 --                                                
 SLN_1                             BIGCHOLD         DOUBLE                              1 --                                                
 SLN_1                             BIGCH            DOUBLE                              1 --                                                
 SLN_1                             RELAXOLD         DOUBLE                              1 --                                                
 SLN_1                             RES_PREV         DOUBLE                              1 --                                                
 SLN_1                             RES_NEW          DOUBLE                              1 --                                                
 SLN_1                             ICNVG            INTEGER                             1 --                                                
 SLN_1                             ITERTOT_TIMESTEP INTEGER                             1 --                                                
 SLN_1                             IOUTTOT_TIMESTEP INTEGER                             1 --                                                
 SLN_1                             INNERTOT_SIM     INTEGER                             1 --                                                
 SLN_1                             MXITER           INTEGER                             1 --                                                
 SLN_1                             LINMETH          INTEGER                             1 --                                                
 SLN_1                             NONMETH          INTEGER                             1 --                                                
 SLN_1                             IPRIMS           INTEGER                             1 --                                                
 SLN_1                             THETA            DOUBLE                              1 --                                                
 SLN_1                             AKAPPA           DOUBLE                              1 --                                                
 SLN_1                             GAMMA            DOUBLE                              1 --                                                
 SLN_1                             AMOMENTUM        DOUBLE                              1 --                                                
 SLN_1                             BREDUC           DOUBLE                              1 --                                                
 SLN_1                             BTOL             DOUBLE                              1 --                                                
 SLN_1                             RES_LIM          DOUBLE                              1 --                                                
 SLN_1                             NUMTRACK         INTEGER                             1 --                                                
 SLN_1                             IBFLAG           INTEGER                             1 --                                                
 SLN_1                             ICSVOUTEROUT     INTEGER                             1 --                                                
 SLN_1                             ICSVINNEROUT     INTEGER                             1 --                                                
 SLN_1                             NITERMAX         INTEGER                             1 --                                                
 SLN_1                             CONVNMOD         INTEGER                             1 --                                                
 SLN_1                             IALLOWPTC        INTEGER                             1 --                                                
 SLN_1                             IPTCOPT          INTEGER                             1 --                                                
 SLN_1                             IPTCOUT          INTEGER                             1 --                                                
 SLN_1                             L2NORM0          DOUBLE                              1 --                                                
 SLN_1                             PTCDEL           DOUBLE                              1 --                                                
 SLN_1                             PTCDEL0          DOUBLE                              1 --                                                
 SLN_1                             PTCEXP           DOUBLE                              1 --                                                
 SLN_1                             PTCTHRESH        DOUBLE                              1 --                                                
 SLN_1                             PTCRAT           DOUBLE                              1 --                                                
 SLN_1                             ATSFRAC          DOUBLE                              1 --                                                
 GWF_2D_SS/DIS                     DELR             DOUBLE                             11 --                                                
 GWF_2D_SS/DIS                     DELC             DOUBLE                             11 --                                                
 GWF_2D_SS/DIS                     IDOMAIN          INTEGER                           121 --                                                
 GWF_2D_SS/DIS                     TOP2D            DOUBLE                            121 --                                                
 GWF_2D_SS/DIS                     BOT3D            DOUBLE                            121 --                                                
 GWF_2D_SS/DIS                     CELLX            DOUBLE                             11 --                                                
 GWF_2D_SS/DIS                     CELLY            DOUBLE                             11 --                                                
 GWF_2D_SS/DIS                     MSHAPE           INTEGER                             3 --                                                
 GWF_2D_SS/DIS                     TOP              DOUBLE                            121 --                                                
 GWF_2D_SS/DIS                     BOT              DOUBLE                            121 --                                                
 GWF_2D_SS/DIS                     AREA             DOUBLE                            121 --                                                
 GWF_2D_SS                         DBUFF            DOUBLE                            121 --                                                
 GWF_2D_SS                         IBUFF            INTEGER                           121 --                                                
 GWF_2D_SS/DIS                     NODEUSER         INTEGER                             1 --                                                
 GWF_2D_SS/DIS                     NODEREDUCED      INTEGER                             1 --                                                
 GWF_2D_SS/CON                     NODES            INTEGER                             1 --                                                
 GWF_2D_SS/CON                     NJA              INTEGER                             1 --                                                
 GWF_2D_SS/CON                     NJAS             INTEGER                             1 --                                                
 GWF_2D_SS/CON                     IANGLEX          INTEGER                             1 --                                                
 GWF_2D_SS/CON                     IA               INTEGER                           122 --                                                
 GWF_2D_SS/CON                     JA               INTEGER                           561 --                                                
 GWF_2D_SS/CON                     ISYM             INTEGER                           561 --                                                
 GWF_2D_SS/CON                     JAS              INTEGER                           561 --                                                
 GWF_2D_SS/CON                     HWVA             DOUBLE                            220 --                                                
 GWF_2D_SS/CON                     ANGLEX           DOUBLE                            220 --                                                
 GWF_2D_SS/CON                     IHC              INTEGER                           220 --                                                
 GWF_2D_SS/CON                     CL1              DOUBLE                            220 --                                                
 GWF_2D_SS/CON                     CL2              DOUBLE                            220 --                                                
 GWF_2D_SS/CON                     IAUSR            INTEGER                             1 --                                                
 GWF_2D_SS/CON                     JAUSR            INTEGER                             1 --                                                
 GWF_2D_SS                         XOLD             DOUBLE                            121 --                                                
 GWF_2D_SS                         FLOWJA           DOUBLE                            561 --                                                
 GWF_2D_SS                         IDXGLO           INTEGER                           561 --                                                
 SLN_1                             IA               INTEGER                           122 --                                                
 SLN_1                             X                DOUBLE                            121 --                                                
 SLN_1                             RHS              DOUBLE                            121 --                                                
 SLN_1                             IACTIVE          INTEGER                           121 --                                                
 SLN_1                             XTEMP            DOUBLE                            121 --                                                
 SLN_1                             DXOLD            DOUBLE                            121 --                                                
 SLN_1                             HNCG             DOUBLE                             25 --                                                
 SLN_1                             LRCH             INTEGER                            75 --                                                
 SLN_1                             WSAVE            DOUBLE                              0 --                                                
 SLN_1                             HCHOLD           DOUBLE                              0 --                                                
 SLN_1                             DEOLD            DOUBLE                              0 --                                                
 SLN_1                             CONVMODSTART     INTEGER                             2 --                                                
 SLN_1                             LOCDV            INTEGER                             1 --                                                
 SLN_1                             LOCDR            INTEGER                             1 --                                                
 SLN_1                             ITINNER          INTEGER                             1 --                                                
 SLN_1                             CONVLOCDV        INTEGER                             1 --                                                
 SLN_1                             CONVLOCDR        INTEGER                             1 --                                                
 SLN_1                             DVMAX            DOUBLE                              1 --                                                
 SLN_1                             DRMAX            DOUBLE                              1 --                                                
 SLN_1                             CONVDVMAX        DOUBLE                              1 --                                                
 SLN_1                             CONVDRMAX        DOUBLE                              1 --                                                
 GWF_2D_SS                         X                DOUBLE                            121 SLN_1/X                                           
 GWF_2D_SS                         RHS              DOUBLE                            121 SLN_1/RHS                                         
 GWF_2D_SS                         IBOUND           INTEGER                           121 SLN_1/IBOUND                                      
 SLN_1                             JA               INTEGER                           561 --                                                
 SLN_1                             AMAT             DOUBLE                            561 --                                                
 GWF_2D_SS/IC                      STRT             DOUBLE                            121 --                                                
 GWF_2D_SS/NPF                     ICELLTYPE        INTEGER                           121 --                                                
 GWF_2D_SS/NPF                     K11              DOUBLE                            121 --                                                
 GWF_2D_SS/NPF                     SAT              DOUBLE                            121 --                                                
 GWF_2D_SS/NPF                     CONDSAT          DOUBLE                            220 --                                                
 GWF_2D_SS/NPF                     K22              DOUBLE                            121 GWF_2D_SS/NPF/K11                                 
 GWF_2D_SS/NPF                     K33              DOUBLE                            121 GWF_2D_SS/NPF/K11                                 
 GWF_2D_SS/NPF                     WETDRY           DOUBLE                              1 --                                                
 GWF_2D_SS/NPF                     ANGLE1           DOUBLE                              1 --                                                
 GWF_2D_SS/NPF                     ANGLE2           DOUBLE                              1 --                                                
 GWF_2D_SS/NPF                     ANGLE3           DOUBLE                              1 --                                                
 GWF_2D_SS/NPF                     IBOTNODE         INTEGER                           121 --                                                
 GWF_2D_SS/NPF                     SPDIS            DOUBLE                              0 --                                                
 GWF_2D_SS/NPF                     NODEDGE          INTEGER                             0 --                                                
 GWF_2D_SS/NPF                     IHCEDGE          INTEGER                             0 --                                                
 GWF_2D_SS/NPF                     PROPSEDGE        DOUBLE                              0 --                                                
 GWF_2D_SS/STO                     ICONVERT         INTEGER                           121 --                                                
 GWF_2D_SS/STO                     SS               DOUBLE                            121 --                                                
 GWF_2D_SS/STO                     SY               DOUBLE                            121 --                                                
 GWF_2D_SS/STO                     STRGSS           DOUBLE                            121 --                                                
 GWF_2D_SS/STO                     STRGSY           DOUBLE                            121 --                                                
 GWF_2D_SS/WEL_0                   NODELIST         INTEGER                             1 --                                                
 GWF_2D_SS/WEL_0                   NOUPDATEAUXVAR   INTEGER                             0 --                                                
 GWF_2D_SS/WEL_0                   BOUND            DOUBLE                              1 --                                                
 GWF_2D_SS/WEL_0                   HCOF             DOUBLE                              1 --                                                
 GWF_2D_SS/WEL_0                   RHS              DOUBLE                              1 --                                                
 GWF_2D_SS/WEL_0                   SIMVALS          DOUBLE                              1 --                                                
 GWF_2D_SS/WEL_0                   SIMTOMVR         DOUBLE                              0 --                                                
 GWF_2D_SS/WEL_0                   AUXVAR           DOUBLE                              0 --                                                
 GWF_2D_SS/CHD_0                   NODELIST         INTEGER                            40 --                                                
 GWF_2D_SS/CHD_0                   NOUPDATEAUXVAR   INTEGER                             0 --                                                
 GWF_2D_SS/CHD_0                   BOUND            DOUBLE                             40 --                                                
 GWF_2D_SS/CHD_0                   HCOF             DOUBLE                             40 --                                                
 GWF_2D_SS/CHD_0                   RHS              DOUBLE                             40 --                                                
 GWF_2D_SS/CHD_0                   SIMVALS          DOUBLE                             40 --                                                
 GWF_2D_SS/CHD_0                   SIMTOMVR         DOUBLE                              0 --                                                
 GWF_2D_SS/CHD_0                   AUXVAR           DOUBLE                              0 --                                                
 GWF_2D_SS/CHD_0                   RATECHDIN        DOUBLE                             40 --                                                
 GWF_2D_SS/CHD_0                   RATECHDOUT       DOUBLE                             40 --                                                
 SLN_1/IMSLinear                   IOUT             INTEGER                             1 --                                                
 SLN_1/IMSLinear                   ILINMETH         INTEGER                             1 --                                                
 SLN_1/IMSLinear                   ITER1            INTEGER                             1 --                                                
 SLN_1/IMSLinear                   IPC              INTEGER                             1 --                                                
 SLN_1/IMSLinear                   ISCL             INTEGER                             1 --                                                
 SLN_1/IMSLinear                   IORD             INTEGER                             1 --                                                
 SLN_1/IMSLinear                   NORTH            INTEGER                             1 --                                                
 SLN_1/IMSLinear                   ICNVGOPT         INTEGER                             1 --                                                
 SLN_1/IMSLinear                   IACPC            INTEGER                             1 --                                                
 SLN_1/IMSLinear                   NITERC           INTEGER                             1 --                                                
 SLN_1/IMSLinear                   NIABCGS          INTEGER                             1 --                                                
 SLN_1/IMSLinear                   NIAPC            INTEGER                             1 --                                                
 SLN_1/IMSLinear                   NJAPC            INTEGER                             1 --                                                
 SLN_1/IMSLinear                   DVCLOSE          DOUBLE                              1 --                                                
 SLN_1/IMSLinear                   RCLOSE           DOUBLE                              1 --                                                
 SLN_1/IMSLinear                   RELAX            DOUBLE                              1 --                                                
 SLN_1/IMSLinear                   EPFACT           DOUBLE                              1 --                                                
 SLN_1/IMSLinear                   L2NORM0          DOUBLE                              1 --                                                
 SLN_1/IMSLinear                   DROPTOL          DOUBLE                              1 --                                                
 SLN_1/IMSLinear                   LEVEL            INTEGER                             1 --                                                
 SLN_1/IMSLinear                   NJLU             INTEGER                             1 --                                                
 SLN_1/IMSLinear                   NJW              INTEGER                             1 --                                                
 SLN_1/IMSLinear                   NWLU             INTEGER                             1 --                                                
 SLN_1/IMSLinear                   DSCALE           DOUBLE                              1 --                                                
 SLN_1/IMSLinear                   DSCALE2          DOUBLE                              1 --                                                
 SLN_1/IMSLinear                   IAPC             INTEGER                           122 --                                                
 SLN_1/IMSLinear                   JAPC             INTEGER                           561 --                                                
 SLN_1/IMSLinear                   APC              DOUBLE                            561 --                                                
 SLN_1/IMSLinear                   IW               INTEGER                           121 --                                                
 SLN_1/IMSLinear                   W                DOUBLE                            121 --                                                
 SLN_1/IMSLinear                   JLU              INTEGER                             1 --                                                
 SLN_1/IMSLinear                   JW               INTEGER                             1 --                                                
 SLN_1/IMSLinear                   WLU              DOUBLE                              1 --                                                
 SLN_1/IMSLinear                   LORDER           INTEGER                             1 --                                                
 SLN_1/IMSLinear                   IORDER           INTEGER                             1 --                                                
 SLN_1/IMSLinear                   IARO             INTEGER                             2 --                                                
 SLN_1/IMSLinear                   JARO             INTEGER                             1 --                                                
 SLN_1/IMSLinear                   ARO              DOUBLE                              1 --                                                
 SLN_1/IMSLinear                   ID               INTEGER                           121 --                                                
 SLN_1/IMSLinear                   D                DOUBLE                            121 --                                                
 SLN_1/IMSLinear                   P                DOUBLE                            121 --                                                
 SLN_1/IMSLinear                   Q                DOUBLE                            121 --                                                
 SLN_1/IMSLinear                   Z                DOUBLE                            121 --                                                
 SLN_1/IMSLinear                   T                DOUBLE                            121 --                                                
 SLN_1/IMSLinear                   V                DOUBLE                            121 --                                                
 SLN_1/IMSLinear                   DHAT             DOUBLE                            121 --                                                
 SLN_1/IMSLinear                   PHAT             DOUBLE                            121 --                                                
 SLN_1/IMSLinear                   QHAT             DOUBLE                            121 --                                                
 -------------------------------------------------------------------------------------------------------------------------------------------



 MEMORY MANAGER TOTAL STORAGE BY DATA TYPE, IN KILOBYTES
 -------------------------------
                    ALLOCATED   
 DATA TYPE           MEMORY     
 -------------------------------
 Character        1.5330000     
 Logical          4.40000000E-02
 Integer          21.636000     
 Real             51.984000     
 -------------------------------
 Total            75.197000     
 -------------------------------


 
 Run end date and time (yyyy/mm/dd hh:mm:ss): 2022/05/23 17:06:55
 Elapsed run time:  0.102 Seconds
 Normal termination of simulation.
