                                   MODFLOW 6
                U.S. GEOLOGICAL SURVEY MODULAR HYDROLOGIC MODEL
                          GROUNDWATER FLOW MODEL (GWF)
                            VERSION 6.6.1 02/10/2025

        MODFLOW 6 compiled Feb 14 2025 13:39:30 with GCC version 12.4.0

This software has been approved for release by the U.S. Geological 
Survey (USGS). Although the software has been subjected to rigorous 
review, the USGS reserves the right to update the software as needed 
pursuant to further analysis and review. No warranty, expressed or 
implied, is made by the USGS or the U.S. Government as to the 
functionality of the software and related material nor shall the 
fact of release constitute any such warranty. Furthermore, the 
software is released on condition that neither the USGS nor the U.S. 
Government shall be held liable for any damages resulting from its 
authorized or unauthorized use. Also refer to the USGS Water 
Resources Software User Rights Notice for complete use, copyright, 
and distribution information.


As a work of the United States Government, this USGS product is 
in the public domain within the United States. You can copy, 
modify, distribute, and perform the work, even for commercial 
purposes, all without asking permission. Additionally, USGS 
waives copyright and related rights in the work worldwide 
through CC0 1.0 Universal Public Domain Dedication 
(https://creativecommons.org/publicdomain/zero/1.0/).

The following GNU Lesser General Public License (LGPL) libraries
are used in this USGS product:

    SPARSKIT version 2.0
      ilut, luson, and qsplit 
      (https://www-users.cse.umn.edu/~saad/software/SPARSKIT/)

    RCM - Reverse Cuthill McKee Ordering
      (https://people.math.sc.edu/Burkardt/f_src/rcm/rcm.html)

    BLAS - Basic Linear Algebra Subprograms Level 1
      (https://people.math.sc.edu/Burkardt/f_src/blas1_d/blas1_d.html)

    SPARSEKIT - Sparse Matrix Utility Package
      amux, dperm, dvperm, rperm, and cperm
      (https://people.sc.fsu.edu/~jburkardt/f77_src/sparsekit/sparsekit.html)

The following BSD-3 License libraries are used in this USGS product:

    Modern Fortran DAG Library
      Copyright (c) 2018, Jacob Williams
      All rights reserved.
      (https://github.com/jacobwilliams/daglib)

MODFLOW 6 compiler options: -cpp -I macarm/obj_libmf6 -iprefix
/opt/homebrew/Cellar/gcc@12/12.4.0/bin/../lib/gcc/12/gcc/aarch64-apple-darwin2
3/12/ -D__DYNAMIC__ -D __APPLE__ -mmacosx-version-min=14.0.0 -mcpu=apple-m1
-mlittle-endian -mabi=lp64 -O2 -Wpedantic -Wcharacter-truncation -Wtabs
-Wline-truncation -Wunused-label -Wunused-variable -std=f2008 -fPIC
-fbacktrace -ffpe-summary=overflow -ffpe-trap=overflow,zero,invalid
-fall-intrinsics -J macarm/mod_libmf6

System command used to initiate simulation:


MODFLOW was compiled using uniform precision.

Real Variables
  KIND: 8
  TINY (smallest non-zero value):    2.225074-308
  HUGE (largest value):    1.797693+308
  PRECISION: 15
  SIZE IN BITS: 64

Integer Variables
  KIND: 4
  HUGE (largest value): 2147483647
  SIZE IN BITS: 32

Long Integer Variables
  KIND: 8
  HUGE (largest value): 9223372036854775807
  SIZE IN BITS: 64

Logical Variables
  KIND: 4
  SIZE IN BITS: 32

 NAMEFILE OPTIONS:
    NEWTON-RAPHSON method enabled for the model.
    FLOWS WILL BE SAVED TO BUDGET FILE SPECIFIED IN OUTPUT CONTROL
 END NAMEFILE OPTIONS:

 DIS -- STRUCTURED GRID DISCRETIZATION PACKAGE, VERSION 2 : 3/27/2014 - INPUT READ FROM MEMPATH: __INPUT__/XDBOX/DIS                               


 NPF -- NODE PROPERTY FLOW PACKAGE, VERSION 1, 3/30/2015 INPUT READ FROM MEMPATH: __INPUT__/XDBOX/NPF                               


 IC -- Initial Conditions Package, Version 8, 3/28/2015 input read from mempath: __INPUT__/XDBOX/IC                                


 Setting Discretization Options
 End Setting Discretization Options

 Setting Discretization Dimensions
    NLAY = 1
    NROW = 80
    NCOL = 100
 End Setting Discretization Dimensions

 Setting Discretization Griddata
    DELR set from input file
    DELC set from input file
    TOP set from input file
    BOTM set from input file
    IDOMAIN set from input file
 End Setting Discretization Griddata

 Setting NPF Options
 End Setting NPF Options

 Setting NPF Griddata
    ICELLTYPE set from input file
    K set from input file
    K33 set from input file
    K22 not provided.  Setting K22 = K.
 End Setting NPF Griddata


 WEL   -- WEL PACKAGE, VERSION 8, 2/22/2014 INPUT READ FROM MEMPATH: __INPUT__/XDBOX/WEL_0                             

 PROCESSING WEL BASE OPTIONS
 END OF WEL BASE OPTIONS

 PROCESSING WEL OPTIONS
 END OF WEL OPTIONS

 PROCESSING WEL BASE DIMENSIONS
    MAXBOUND =    8000
 END OF WEL BASE DIMENSIONS

 CHD   -- CHD PACKAGE, VERSION 8, 2/22/2014 INPUT READ FROM MEMPATH: __INPUT__/XDBOX/CHD_0                             

 PROCESSING CHD BASE OPTIONS
 END OF CHD BASE OPTIONS

 PROCESSING CHD BASE DIMENSIONS
    MAXBOUND =     160
 END OF CHD BASE DIMENSIONS
    STRT set from input file

 STO -- STORAGE PACKAGE, VERSION 1, 5/19/2014 INPUT READ FROM MEMPATH: __INPUT__/XDBOX/STO                               


 PROCESSING STORAGE OPTIONS
 END OF STORAGE OPTIONS
    BINARY GRID INFORMATION WILL BE WRITTEN TO:
      UNIT NUMBER: 1014
      FILE NAME: xdbox.dis.grb

 OPENED xdbox.dis.grb
 FILE TYPE:DATA(BINARY)   UNIT 1014   STATUS:REPLACE             
 FORMAT:UNFORMATTED            ACCESS:STREAM              
 ACTION:READWRITE           

      THE LAST TIME STEP WILL BE PRINTED
      THE LAST TIME STEP WILL BE PRINTED
 # File generated by Flopy version 3.9.2 on 05/08/2025 at 09:08:33.

 PROCESSING OC OPTIONS

    BUDGET INFORMATION WILL BE WRITTEN TO:
      UNIT NUMBER: 1015
      FILE NAME: xdbox.cbb

 OPENED xdbox.cbb
 FILE TYPE:DATA(BINARY)   UNIT 1015   STATUS:REPLACE             
 FORMAT:UNFORMATTED            ACCESS:STREAM              
 ACTION:READWRITE           

    HEAD INFORMATION WILL BE WRITTEN TO:
      UNIT NUMBER: 1016
      FILE NAME: xdbox.hds

 OPENED xdbox.hds
 FILE TYPE:DATA(BINARY)   UNIT 1016   STATUS:REPLACE             
 FORMAT:UNFORMATTED            ACCESS:STREAM              
 ACTION:READWRITE           

 END OF OC OPTIONS

start timestep kper="1" kstp="1" mode="normal"


 BEGIN READING OUTPUT CONTROL FOR STRESS PERIOD 1
      ALL TIME STEPS WILL BE SAVED
      ALL TIME STEPS WILL BE SAVED
      ALL TIME STEPS WILL BE PRINTED

 END READING OUTPUT CONTROL FOR STRESS PERIOD 1


 PROCESSING STORAGE PERIOD DATA
 END PROCESSING STORAGE PERIOD DATA


 STRESS PERIOD 1 IS TRANSIENT

 UBDSV1 SAVING           STO-SS ON UNIT   1015 AT TIME STEP      1, STRESS PERIOD      1
 UBDSV1 SAVING     FLOW-JA-FACE ON UNIT   1015 AT TIME STEP      1, STRESS PERIOD      1
 UBDSV06 SAVING              WEL IN MODEL XDBOX            PACKAGE XDBOX           CONNECTED TO MODEL XDBOX            PACKAGE WEL_0            ON UNIT   1015 AT TIME STEP      1, STRESS PERIOD      1
 UBDSV06 SAVING              CHD IN MODEL XDBOX            PACKAGE XDBOX           CONNECTED TO MODEL XDBOX            PACKAGE CHD_0            ON UNIT   1015 AT TIME STEP      1, STRESS PERIOD      1
1
  HEAD IN LAYER   1 AT END OF TIME STEP   1 IN STRESS PERIOD    1
  ---------------------------------------------------------------------------

 ........................................................................................................................................................................................................................................................................................................................................................................................................................................................................................................................................................................................................................................................................................................................................................................................................................................................................................................................................................................................................................................
   1    1001.       1001.       1001.       1001.       1001.       1001.       1001.       1001.       1001.       1001.    
        1001.       1001.       1001.       1001.       1001.       1001.       1001.       1001.       1001.       1001.    
        1001.       1001.       1001.       1001.       1001.       1001.       1001.       1001.       1001.       1001.    
        1001.       1001.       1001.       1001.       1001.       1001.       1001.       1001.       1001.       1001.    
        1001.       1001.       1001.       1001.       1001.       1001.       1001.       1001.       1001.       1001.    
        1000.       1000.       1000.       1000.       1000.       1000.       1000.       1000.       1000.       1000.    
        1000.       1000.       1000.       1000.       1000.       1000.       1000.       1000.       1000.       1000.    
        1000.       1000.       1000.       1000.       1000.       1000.       1000.       1000.       1000.       1000.    
        1000.       1000.       1000.       1000.       1000.       1000.       1000.       1000.       1000.       1000.    
        1000.       1000.       1000.       1000.       1000.       1000.       1000.       1000.       1000.       1000.    
   2    1001.       1001.       1001.       1001.       1001.       1001.       1001.       1001.       1001.       1001.    
        1001.       1001.       1001.       1001.       1001.       1001.       1001.       1001.       1001.       1001.    
        1001.       1001.       1001.       1001.       1001.       1001.       1001.       1001.       1001.       1001.    
        1001.       1001.       1001.       1001.       1001.       1001.       1001.       1001.       1001.       1001.    
        1001.       1001.       1001.       1001.       1001.       1001.       1001.       1001.       1001.       1001.    
        1000.       1000.       1000.       1000.       1000.       1000.       1000.       1000.       1000.       1000.    
        1000.       1000.       1000.       1000.       1000.       1000.       1000.       1000.       1000.       1000.    
        1000.       1000.       1000.       1000.       1000.       1000.       1000.       1000.       1000.       1000.    
        1000.       1000.       1000.       1000.       1000.       1000.       1000.       1000.       1000.       1000.    
        1000.       1000.       1000.       1000.       1000.       1000.       1000.       1000.       1000.       1000.    
   3    1001.       1001.       1001.       1001.       1001.       1001.       1001.       1001.       1001.       1001.    
        1001.       1001.       1001.       1001.       1001.       1001.       1001.       1001.       1001.       1001.    
        1001.       1001.       1001.       1001.       1001.       1001.       1001.       1001.       1001.       1001.    
        1001.       1001.       1001.       1001.       1001.       1001.       1001.       1001.       1001.       1001.    
        1001.       1001.       1001.       1001.       1001.       1001.       1001.       1001.       1001.       1001.    
        1000.       1000.       1000.       1000.       1000.       1000.       1000.       1000.       1000.       1000.    
        1000.       1000.       1000.       1000.       1000.       1000.       1000.       1000.       1000.       1000.    
        1000.       1000.       1000.       1000.       1000.       1000.       1000.       1000.       1000.       1000.    
        1000.       1000.       1000.       1000.       1000.       1000.       1000.       1000.       1000.       1000.    
        1000.       1000.       1000.       1000.       1000.       1000.       1000.       1000.       1000.       1000.    
   4    1001.       1001.       1001.       1001.       1001.       1001.       1001.       1001.       1001.       1001.    
        1001.       1001.       1001.       1001.       1001.       1001.       1001.       1001.       1001.       1001.    
        1001.       1001.       1001.       1001.       1001.       1001.       1001.       1001.       1001.       1001.    
        1001.       1001.       1001.       1001.       1001.       1001.       1001.       1001.       1001.       1001.    
        1001.       1001.       1001.       1001.       1001.       1001.       1001.       1001.       1001.       1001.    
        1000.       1000.       1000.       1000.       1000.       1000.       1000.       1000.       1000.       1000.    
        1000.       1000.       1000.       1000.       1000.       1000.       1000.       1000.       1000.       1000.    
        1000.       1000.       1000.       1000.       1000.       1000.       1000.       1000.       1000.       1000.    
        1000.       1000.       1000.       1000.       1000.       1000.       1000.       1000.       1000.       1000.    
        1000.       1000.       1000.       1000.       1000.       1000.       1000.       1000.       1000.       1000.    
   5    1001.       1001.       1001.       1001.       1001.       1001.       1001.       1001.       1001.       1001.    
        1001.       1001.       1001.       1001.       1001.       1001.       1001.       1001.       1001.       1001.    
        1001.       1001.       1001.       1001.       1001.       1001.       1001.       1001.       1001.       1001.    
        1001.       1001.       1001.       1001.       1001.       1001.       1001.       1001.       1001.       1001.    
        1001.       1001.       1001.       1001.       1001.       1001.       1001.       1001.       1001.       1001.    
        1000.       1000.       1000.       1000.       1000.       1000.       1000.       1000.       1000.       1000.    
        1000.       1000.       1000.       1000.       1000.       1000.       1000.       1000.       1000.       1000.    
        1000.       1000.       1000.       1000.       1000.       1000.       1000.       1000.       1000.       1000.    
        1000.       1000.       1000.       1000.       1000.       1000.       1000.       1000.       1000.       1000.    
        1000.       1000.       1000.       1000.       1000.       1000.       1000.       1000.       1000.       1000.    
   6    1001.       1001.       1001.       1001.       1001.       1001.       1001.       1001.       1001.       1001.    
        1001.       1001.       1001.       1001.       1001.       1001.       1001.       1001.       1001.       1001.    
        1001.       1001.       1001.       1001.       1001.       1001.       1001.       1001.       1001.       1001.    
        1001.       1001.       1001.       1001.       1001.       1001.       1001.       1001.       1001.       1001.    
        1001.       1001.       1001.       1001.       1001.       1001.       1001.       1001.       1001.       1001.    
        1000.       1000.       1000.       1000.       1000.       1000.       1000.       1000.       1000.       1000.    
        1000.       1000.       1000.       1000.       1000.       1000.       1000.       1000.       1000.       1000.    
        1000.       1000.       1000.       1000.       1000.       1000.       1000.       1000.       1000.       1000.    
        1000.       1000.       1000.       1000.       1000.       1000.       1000.       1000.       1000.       1000.    
        1000.       1000.       1000.       1000.       1000.       1000.       1000.       1000.       1000.       1000.    
   7    1001.       1001.       1001.       1001.       1001.       1001.       1001.       1001.       1001.       1001.    
        1001.       1001.       1001.       1001.       1001.       1001.       1001.       1001.       1001.       1001.    
        1001.       1001.       1001.       1001.       1001.       1001.       1001.       1001.       1001.       1001.    
        1001.       1001.       1001.       1001.       1001.       1001.       1001.       1001.       1001.       1001.    
        1001.       1001.       1001.       1001.       1001.       1001.       1001.       1001.       1001.       1001.    
        1000.       1000.       1000.       1000.       1000.       1000.       1000.       1000.       1000.       1000.    
        1000.       1000.       1000.       1000.       1000.       1000.       1000.       1000.       1000.       1000.    
        1000.       1000.       1000.       1000.       1000.       1000.       1000.       1000.       1000.       1000.    
        1000.       1000.       1000.       1000.       1000.       1000.       1000.       1000.       1000.       1000.    
        1000.       1000.       1000.       1000.       1000.       1000.       1000.       1000.       1000.       1000.    
   8    1001.       1001.       1001.       1001.       1001.       1001.       1001.       1001.       1001.       1001.    
        1001.       1001.       1001.       1001.       1001.       1001.       1001.       1001.       1001.       1001.    
        1001.       1001.       1001.       1001.       1001.       1001.       1001.       1001.       1001.       1001.    
        1001.       1001.       1001.       1001.       1001.       1001.       1001.       1001.       1001.       1001.    
        1001.       1001.       1001.       1001.       1001.       1001.       1001.       1001.       1001.       1001.    
        1000.       1000.       1000.       1000.       1000.       1000.       1000.       1000.       1000.       1000.    
        1000.       1000.       1000.       1000.       1000.       1000.       1000.       1000.       1000.       1000.    
        1000.       1000.       1000.       1000.       1000.       1000.       1000.       1000.       1000.       1000.    
        1000.       1000.       1000.       1000.       1000.       1000.       1000.       1000.       1000.       1000.    
        1000.       1000.       1000.       1000.       1000.       1000.       1000.       1000.       1000.       1000.    
   9    1001.       1001.       1001.       1001.       1001.       1001.       1001.       1001.       1001.       1001.    
        1001.       1001.       1001.       1001.       1001.       1001.       1001.       1001.       1001.       1001.    
        1001.       1001.       1001.       1001.       1001.       1001.       1001.       1001.       1001.       1001.    
        1001.       1001.       1001.       1001.       1001.       1001.       1001.       1001.       1001.       1001.    
        1001.       1001.       1001.       1001.       1001.       1001.       1001.       1001.       1001.       1001.    
        1000.       1000.       1000.       1000.       1000.       1000.       1000.       1000.       1000.       1000.    
        1000.       1000.       1000.       1000.       1000.       1000.       1000.       1000.       1000.       1000.    
        1000.       1000.       1000.       1000.       1000.       1000.       1000.       1000.       1000.       1000.    
        1000.       1000.       1000.       1000.       1000.       1000.       1000.       1000.       1000.       1000.    
        1000.       1000.       1000.       1000.       1000.       1000.       1000.       1000.       1000.       1000.    
  10    1001.       1001.       1001.       1001.       1001.       1001.       1001.       1001.       1001.       1001.    
        1001.       1001.       1001.       1001.       1001.       1001.       1001.       1001.       1001.       1001.    
        1001.       1001.       1001.       1001.       1001.       1001.       1001.       1001.       1001.       1001.    
        1001.       1001.       1001.       1001.       1001.       1001.       1001.       1001.       1001.       1001.    
        1001.       1001.       1001.       1001.       1001.       1001.       1001.       1001.       1001.       1001.    
        1000.       1000.       1000.       1000.       1000.       1000.       1000.       1000.       1000.       1000.    
        1000.       1000.       1000.       1000.       1000.       1000.       1000.       1000.       1000.       1000.    
        1000.       1000.       1000.       1000.       1000.       1000.       1000.       1000.       1000.       1000.    
        1000.       1000.       1000.       1000.       1000.       1000.       1000.       1000.       1000.       1000.    
        1000.       1000.       1000.       1000.       1000.       1000.       1000.       1000.       1000.       1000.    
  11    1001.       1001.       1001.       1001.       1001.       1001.       1001.       1001.       1001.       1001.    
        1001.       1001.       1001.       1001.       1001.       1001.       1001.       1001.       1001.       1001.    
        1001.       1001.       1001.       1001.       1001.       1001.       1001.       1001.       1001.       1001.    
        1001.       1001.       1001.       1001.       1001.       1001.       1001.       1001.       1001.       1001.    
        1001.       1001.       1001.       1001.       1001.       1001.       1001.       1001.       1001.       1001.    
        1000.       1000.       1000.       1000.       1000.       1000.       1000.       1000.       1000.       1000.    
        1000.       1000.       1000.       1000.       1000.       1000.       1000.       1000.       1000.       1000.    
        1000.       1000.       1000.       1000.       1000.       1000.       1000.       1000.       1000.       1000.    
        1000.       1000.       1000.       1000.       1000.       1000.       1000.       1000.       1000.       1000.    
        1000.       1000.       1000.       1000.       1000.       1000.       1000.       1000.       1000.       1000.    
  12    1001.       1001.       1001.       1001.       1001.       1001.       1001.       1001.       1001.       1001.    
        1001.       1001.       1001.       1001.       1001.       1001.       1001.       1001.       1001.       1001.    
        1001.       1001.       1001.       1001.       1001.       1001.       1001.       1001.       1001.       1001.    
        1001.       1001.       1001.       1001.       1001.       1001.       1001.       1001.       1001.       1001.    
        1001.       1001.       1001.       1001.       1001.       1001.       1001.       1001.       1001.       1001.    
        1000.       1000.       1000.       1000.       1000.       1000.       1000.       1000.       1000.       1000.    
        1000.       1000.       1000.       1000.       1000.       1000.       1000.       1000.       1000.       1000.    
        1000.       1000.       1000.       1000.       1000.       1000.       1000.       1000.       1000.       1000.    
        1000.       1000.       1000.       1000.       1000.       1000.       1000.       1000.       1000.       1000.    
        1000.       1000.       1000.       1000.       1000.       1000.       1000.       1000.       1000.       1000.    
  13    1001.       1001.       1001.       1001.       1001.       1001.       1001.       1001.       1001.       1001.    
        1001.       1001.       1001.       1001.       1001.       1001.       1001.       1001.       1001.       1001.    
        1001.       1001.       1001.       1001.       1001.       1001.       1001.       1001.       1001.       1001.    
        1001.       1001.       1001.       1001.       1001.       1001.       1001.       1001.       1001.       1001.    
        1001.       1001.       1001.       1001.       1001.       1001.       1001.       1001.       1001.       1001.    
        1000.       1000.       1000.       1000.       1000.       1000.       1000.       1000.       1000.       1000.    
        1000.       1000.       1000.       1000.       1000.       1000.       1000.       1000.       1000.       1000.    
        1000.       1000.       1000.       1000.       1000.       1000.       1000.       1000.       1000.       1000.    
        1000.       1000.       1000.       1000.       1000.       1000.       1000.       1000.       1000.       1000.    
        1000.       1000.       1000.       1000.       1000.       1000.       1000.       1000.       1000.       1000.    
  14    1001.       1001.       1001.       1001.       1001.       1001.       1001.       1001.       1001.       1001.    
        1001.       1001.       1001.       1001.       1001.       1001.       1001.       1001.       1001.       1001.    
        1001.       1001.       1001.       1001.       1001.       1001.       1001.       1001.       1001.       1001.    
        1001.       1001.       1001.       1001.       1001.       1001.       1001.       1001.       1001.       1001.    
        1001.       1001.       1001.       1001.       1001.       1001.       1001.       1001.       1001.       1001.    
        1000.       1000.       1000.       1000.       1000.       1000.       1000.       1000.       1000.       1000.    
        1000.       1000.       1000.       1000.       1000.       1000.       1000.       1000.       1000.       1000.    
        1000.       1000.       1000.       1000.       1000.       1000.       1000.       1000.       1000.       1000.    
        1000.       1000.       1000.       1000.       1000.       1000.       1000.       1000.       1000.       1000.    
        1000.       1000.       1000.       1000.       1000.       1000.       1000.       1000.       1000.       1000.    
  15    1001.       1001.       1001.       1001.       1001.       1001.       1001.       1001.       1001.       1001.    
        1001.       1001.       1001.       1001.       1001.       1001.       1001.       1001.       1001.       1001.    
        1001.       1001.       1001.       1001.       1001.       1001.       1001.       1001.       1001.       1001.    
        1001.       1001.       1001.       1001.       1001.       1001.       1001.       1001.       1001.       1001.    
        1001.       1001.       1001.       1001.       1001.       1001.       1001.       1001.       1001.       1001.    
        1000.       1000.       1000.       1000.       1000.       1000.       1000.       1000.       1000.       1000.    
        1000.       1000.       1000.       1000.       1000.       1000.       1000.       1000.       1000.       1000.    
        1000.       1000.       1000.       1000.       1000.       1000.       1000.       1000.       1000.       1000.    
        1000.       1000.       1000.       1000.       1000.       1000.       1000.       1000.       1000.       1000.    
        1000.       1000.       1000.       1000.       1000.       1000.       1000.       1000.       1000.       1000.    
  16    1001.       1001.       1001.       1001.       1001.       1001.       1001.       1001.       1001.       1001.    
        1001.       1001.       1001.       1001.       1001.       1001.       1001.       1001.       1001.       1001.    
        1001.       1001.       1001.       1001.       1001.       1001.       1001.       1001.       1001.       1001.    
        1001.       1001.       1001.       1001.       1001.       1001.       1001.       1001.       1001.       1001.    
        1001.       1001.       1001.       1001.       1001.       1001.       1001.       1001.       1001.       1001.    
        1000.       1000.       1000.       1000.       1000.       1000.       1000.       1000.       1000.       1000.    
        1000.       1000.       1000.       1000.       1000.       1000.       1000.       1000.       1000.       1000.    
        1000.       1000.       1000.       1000.       1000.       1000.       1000.       1000.       1000.       1000.    
        1000.       1000.       1000.       1000.       1000.       1000.       1000.       1000.       1000.       1000.    
        1000.       1000.       1000.       1000.       1000.       1000.       1000.       1000.       1000.       1000.    
  17    1001.       1001.       1001.       1001.       1001.       1001.       1001.       1001.       1001.       1001.    
        1001.       1001.       1001.       1001.       1001.       1001.       1001.       1001.       1001.       1001.    
        1001.       1001.       1001.       1001.       1001.       1001.       1001.       1001.       1001.       1001.    
        1001.       1001.       1001.       1001.       1001.       1001.       1001.       1001.       1001.       1001.    
        1001.       1001.       1001.       1001.       1001.       1001.       1001.       1001.       1001.       1001.    
        1000.       1000.       1000.       1000.       1000.       1000.       1000.       1000.       1000.       1000.    
        1000.       1000.       1000.       1000.       1000.       1000.       1000.       1000.       1000.       1000.    
        1000.       1000.       1000.       1000.       1000.       1000.       1000.       1000.       1000.       1000.    
        1000.       1000.       1000.       1000.       1000.       1000.       1000.       1000.       1000.       1000.    
        1000.       1000.       1000.       1000.       1000.       1000.       1000.       1000.       1000.       1000.    
  18    1001.       1001.       1001.       1001.       1001.       1001.       1001.       1001.       1001.       1001.    
        1001.       1001.       1001.       1001.       1001.       1001.       1001.       1001.       1001.       1001.    
        1001.       1001.       1001.       1001.       1001.       1001.       1001.       1001.       1001.       1001.    
        1001.       1001.       1001.       1001.       1001.       1001.       1001.       1001.       1001.       1001.    
        1001.       1001.       1001.       1001.       1001.       1001.       1001.       1001.       1001.       1001.    
        1000.       1000.       1000.       1000.       1000.       1000.       1000.       1000.       1000.       1000.    
        1000.       1000.       1000.       1000.       1000.       1000.       1000.       1000.       1000.       1000.    
        1000.       1000.       1000.       1000.       1000.       1000.       1000.       1000.       1000.       1000.    
        1000.       1000.       1000.       1000.       1000.       1000.       1000.       1000.       1000.       1000.    
        1000.       1000.       1000.       1000.       1000.       1000.       1000.       1000.       1000.       1000.    
  19    1001.       1001.       1001.       1001.       1001.       1001.       1001.       1001.       1001.       1001.    
        1001.       1001.       1001.       1001.       1001.       1001.       1001.       1001.       1001.       1001.    
        1001.       1001.       1001.       1001.       1001.       1001.       1001.       1001.       1001.       1001.    
        1001.       1001.       1001.       1001.       1001.       1001.       1001.       1001.       1001.       1001.    
        1001.       1001.       1001.       1001.       1001.       1001.       1001.       1001.       1001.       1001.    
        1000.       1000.       1000.       1000.       1000.       1000.       1000.       1000.       1000.       1000.    
        1000.       1000.       1000.       1000.       1000.       1000.       1000.       1000.       1000.       1000.    
        1000.       1000.       1000.       1000.       1000.       1000.       1000.       1000.       1000.       1000.    
        1000.       1000.       1000.       1000.       1000.       1000.       1000.       1000.       1000.       1000.    
        1000.       1000.       1000.       1000.       1000.       1000.       1000.       1000.       1000.       1000.    
  20    1001.       1001.       1001.       1001.       1001.       1001.       1001.       1001.       1001.       1001.    
        1001.       1001.       1001.       1001.       1001.       1001.       1001.       1001.       1001.       1001.    
        1001.       1001.       1001.       1001.       1001.       1001.       1001.       1001.       1001.       1001.    
        1001.       1001.       1001.       1001.       1001.       1001.       1001.       1001.       1001.       1001.    
        1001.       1001.       1001.       1001.       1001.       1001.       1001.       1001.       1001.       1001.    
        1000.       1000.       1000.       1000.       1000.       1000.       1000.       1000.       1000.       1000.    
        1000.       1000.       1000.       1000.       1000.       1000.       1000.       1000.       1000.       1000.    
        1000.       1000.       1000.       1000.       1000.       1000.       1000.       1000.       1000.       1000.    
        1000.       1000.       1000.       1000.       1000.       1000.       1000.       1000.       1000.       1000.    
        1000.       1000.       1000.       1000.       1000.       1000.       1000.       1000.       1000.       1000.    
  21    1001.       1001.       1001.       1001.       1001.       1001.       1001.       1001.       1001.       1001.    
        1001.       1001.       1001.       1001.       1001.       1001.       1001.       1001.       1001.       1001.    
        1001.       1001.       1001.       1001.       1001.       1001.       1001.       1001.       1001.       1001.    
        1001.       1001.       1001.       1001.       1001.       1001.       1001.       1001.       1001.       1001.    
        1001.       1001.       1001.       1001.       1001.       1001.       1001.       1001.       1001.       1001.    
        1000.       1000.       1000.       1000.       1000.       1000.       1000.       1000.       1000.       1000.    
        1000.       1000.       1000.       1000.       1000.       1000.       1000.       1000.       1000.       1000.    
        1000.       1000.       1000.       1000.       1000.       1000.       1000.       1000.       1000.       1000.    
        1000.       1000.       1000.       1000.       1000.       1000.       1000.       1000.       1000.       1000.    
        1000.       1000.       1000.       1000.       1000.       1000.       1000.       1000.       1000.       1000.    
  22    1001.       1001.       1001.       1001.       1001.       1001.       1001.       1001.       1001.       1001.    
        1001.       1001.       1001.       1001.       1001.       1001.       1001.       1001.       1001.       1001.    
        1001.       1001.       1001.       1001.       1001.       1001.       1001.       1001.       1001.       1001.    
        1001.       1001.       1001.       1001.       1001.       1001.       1001.       1001.       1001.       1001.    
        1001.       1001.       1001.       1001.       1001.       1001.       1001.       1001.       1001.       1001.    
        1000.       1000.       1000.       1000.       1000.       1000.       1000.       1000.       1000.       1000.    
        1000.       1000.       1000.       1000.       1000.       1000.       1000.       1000.       1000.       1000.    
        1000.       1000.       1000.       1000.       1000.       1000.       1000.       1000.       1000.       1000.    
        1000.       1000.       1000.       1000.       1000.       1000.       1000.       1000.       1000.       1000.    
        1000.       1000.       1000.       1000.       1000.       1000.       1000.       1000.       1000.       1000.    
  23    1001.       1001.       1001.       1001.       1001.       1001.       1001.       1001.       1001.       1001.    
        1001.       1001.       1001.       1001.       1001.       1001.       1001.       1001.       1001.       1001.    
        1001.       1001.       1001.       1001.       1001.       1001.       1001.       1001.       1001.       1001.    
        1001.       1001.       1001.       1001.       1001.       1001.       1001.       1001.       1001.       1001.    
        1001.       1001.       1001.       1001.       1001.       1001.       1001.       1001.       1001.       1001.    
        1000.       1000.       1000.       1000.       1000.       1000.       1000.       1000.       1000.       1000.    
        1000.       1000.       1000.       1000.       1000.       1000.       1000.       1000.       1000.       1000.    
        1000.       1000.       1000.       1000.       1000.       1000.       1000.       1000.       1000.       1000.    
        1000.       1000.       1000.       1000.       1000.       1000.       1000.       1000.       1000.       1000.    
        1000.       1000.       1000.       1000.       1000.       1000.       1000.       1000.       1000.       1000.    
  24    1001.       1001.       1001.       1001.       1001.       1001.       1001.       1001.       1001.       1001.    
        1001.       1001.       1001.       1001.       1001.       1001.       1001.       1001.       1001.       1001.    
        1001.       1001.       1001.       1001.       1001.       1001.       1001.       1001.       1001.       1001.    
        1001.       1001.       1001.       1001.       1001.       1001.       1001.       1001.       1001.       1001.    
        1001.       1001.       1001.       1001.       1001.       1001.       1001.       1001.       1001.       1001.    
        1000.       1000.       1000.       1000.       1000.       1000.       1000.       1000.       1000.       1000.    
        1000.       1000.       1000.       1000.       1000.       1000.       1000.       1000.       1000.       1000.    
        1000.       1000.       1000.       1000.       1000.       1000.       1000.       1000.       1000.       1000.    
        1000.       1000.       1000.       1000.       1000.       1000.       1000.       1000.       1000.       1000.    
        1000.       1000.       1000.       1000.       1000.       1000.       1000.       1000.       1000.       1000.    
  25    1001.       1001.       1001.       1001.       1001.       1001.       1001.       1001.       1001.       1001.    
        1001.       1001.       1001.       1001.       1001.       1001.       1001.       1001.       1001.       1001.    
        1001.       1001.       1001.       1001.       1001.       1001.       1001.       1001.       1001.       1001.    
        1001.       1001.       1001.       1001.       1001.       1001.       1001.       1001.       1001.       1001.    
        1001.       1001.       1001.       1001.       1001.       1001.       1001.       1001.       1001.       1001.    
        1000.       1000.       1000.       1000.       1000.       1000.       1000.       1000.       1000.       1000.    
        1000.       1000.       1000.       1000.       1000.       1000.       1000.       1000.       1000.       1000.    
        1000.       1000.       1000.       1000.       1000.       1000.       1000.       1000.       1000.       1000.    
        1000.       1000.       1000.       1000.       1000.       1000.       1000.       1000.       1000.       1000.    
        1000.       1000.       1000.       1000.       1000.       1000.       1000.       1000.       1000.       1000.    
  26    1001.       1001.       1001.       1001.       1001.       1001.       1001.       1001.       1001.       1001.    
        1001.       1001.       1001.       1001.       1001.       1001.       1001.       1001.       1001.       1001.    
        1001.       1001.       1001.       1001.       1001.       1001.       1001.       1001.       1001.       1001.    
        1001.       1001.       1001.       1001.       1001.       1001.       1001.       1001.       1001.       1001.    
        1001.       1001.       1001.       1001.       1001.       1001.       1001.       1001.       1001.       1001.    
        1000.       1000.       1000.       1000.       1000.       1000.       1000.       1000.       1000.       1000.    
        1000.       1000.       1000.       1000.       1000.       1000.       1000.       1000.       1000.       1000.    
        1000.       1000.       1000.       1000.       1000.       1000.       1000.       1000.       1000.       1000.    
        1000.       1000.       1000.       1000.       1000.       1000.       1000.       1000.       1000.       1000.    
        1000.       1000.       1000.       1000.       1000.       1000.       1000.       1000.       1000.       1000.    
  27    1001.       1001.       1001.       1001.       1001.       1001.       1001.       1001.       1001.       1001.    
        1001.       1001.       1001.       1001.       1001.       1001.       1001.       1001.       1001.       1001.    
        1001.       1001.       1001.       1001.       1001.       1001.       1001.       1001.       1001.       1001.    
        1001.       1001.       1001.       1001.       1001.       1001.       1001.       1001.       1001.       1001.    
        1001.       1001.       1001.       1001.       1001.       1001.       1001.       1001.       1001.       1001.    
        1000.       1000.       1000.       1000.       1000.       1000.       1000.       1000.       1000.       1000.    
        1000.       1000.       1000.       1000.       1000.       1000.       1000.       1000.       1000.       1000.    
        1000.       1000.       1000.       1000.       1000.       1000.       1000.       1000.       1000.       1000.    
        1000.       1000.       1000.       1000.       1000.       1000.       1000.       1000.       1000.       1000.    
        1000.       1000.       1000.       1000.       1000.       1000.       1000.       1000.       1000.       1000.    
  28    1001.       1001.       1001.       1001.       1001.       1001.       1001.       1001.       1001.       1001.    
        1001.       1001.       1001.       1001.       1001.       1001.       1001.       1001.       1001.       1001.    
        1001.       1001.       1001.       1001.       1001.       1001.       1001.       1001.       1001.       1001.    
        1001.       1001.       1001.       1001.       1001.       1001.       1001.       1001.       1001.       1001.    
        1001.       1001.       1001.       1001.       1001.       1001.       1001.       1001.       1001.       1001.    
        1000.       1000.       1000.       1000.       1000.       1000.       1000.       1000.       1000.       1000.    
        1000.       1000.       1000.       1000.       1000.       1000.       1000.       1000.       1000.       1000.    
        1000.       1000.       1000.       1000.       1000.       1000.       1000.       1000.       1000.       1000.    
        1000.       1000.       1000.       1000.       1000.       1000.       1000.       1000.       1000.       1000.    
        1000.       1000.       1000.       1000.       1000.       1000.       1000.       1000.       1000.       1000.    
  29    1001.       1001.       1001.       1001.       1001.       1001.       1001.       1001.       1001.       1001.    
        1001.       1001.       1001.       1001.       1001.       1001.       1001.       1001.       1001.       1001.    
        1001.       1001.       1001.       1001.       1001.       1001.       1001.       1001.       1001.       1001.    
        1001.       1001.       1001.       1001.       1001.       1001.       1001.       1001.       1001.       1001.    
        1001.       1001.       1001.       1001.       1001.       1001.       1001.       1001.       1001.       1001.    
        1000.       1000.       1000.       1000.       1000.       1000.       1000.       1000.       1000.       1000.    
        1000.       1000.       1000.       1000.       1000.       1000.       1000.       1000.       1000.       1000.    
        1000.       1000.       1000.       1000.       1000.       1000.       1000.       1000.       1000.       1000.    
        1000.       1000.       1000.       1000.       1000.       1000.       1000.       1000.       1000.       1000.    
        1000.       1000.       1000.       1000.       1000.       1000.       1000.       1000.       1000.       1000.    
  30    1001.       1001.       1001.       1001.       1001.       1001.       1001.       1001.       1001.       1001.    
        1001.       1001.       1001.       1001.       1001.       1001.       1001.       1001.       1001.       1001.    
        1001.       1001.       1001.       1001.       1001.       1001.       1001.       1001.       1001.       1001.    
        1001.       1001.       1001.       1001.       1001.       1001.       1001.       1001.       1001.       1001.    
        1001.       1001.       1001.       1001.       1001.       1001.       1001.       1001.       1001.       1001.    
        1000.       1000.       1000.       1000.       1000.       1000.       1000.       1000.       1000.       1000.    
        1000.       1000.       1000.       1000.       1000.       1000.       1000.       1000.       1000.       1000.    
        1000.       1000.       1000.       1000.       1000.       1000.       1000.       1000.       1000.       1000.    
        1000.       1000.       1000.       1000.       1000.       1000.       1000.       1000.       1000.       1000.    
        1000.       1000.       1000.       1000.       1000.       1000.       1000.       1000.       1000.       1000.    
  31    1001.       1001.       1001.       1001.       1001.       1001.       1001.       1001.       1001.       1001.    
        1001.       1001.       1001.       1001.       1001.       1001.       1001.       1001.       1001.       1001.    
        1001.       1001.       1001.       1001.       1001.       1001.       1001.       1001.       1001.       1001.    
        1001.       1001.       1001.       1001.       1001.       1001.       1001.       1001.       1001.       1001.    
        1001.       1001.       1001.       1001.       1001.       1001.       1001.       1001.       1001.       1001.    
        1000.       1000.       1000.       1000.       1000.       1000.       1000.       1000.       1000.       1000.    
        1000.       1000.       1000.       1000.       1000.       1000.       1000.       1000.       1000.       1000.    
        1000.       1000.       1000.       1000.       1000.       1000.       1000.       1000.       1000.       1000.    
        1000.       1000.       1000.       1000.       1000.       1000.       1000.       1000.       1000.       1000.    
        1000.       1000.       1000.       1000.       1000.       1000.       1000.       1000.       1000.       1000.    
  32    1001.       1001.       1001.       1001.       1001.       1001.       1001.       1001.       1001.       1001.    
        1001.       1001.       1001.       1001.       1001.       1001.       1001.       1001.       1001.       1001.    
        1001.       1001.       1001.       1001.       1001.       1001.       1001.       1001.       1001.       1001.    
        1001.       1001.       1001.       1001.       1001.       1001.       1001.       1001.       1001.       1001.    
        1001.       1001.       1001.       1001.       1001.       1001.       1001.       1001.       1001.       1001.    
        1000.       1000.       1000.       1000.       1000.       1000.       1000.       1000.       1000.       1000.    
        1000.       1000.       1000.       1000.       1000.       1000.       1000.       1000.       1000.       1000.    
        1000.       1000.       1000.       1000.       1000.       1000.       1000.       1000.       1000.       1000.    
        1000.       1000.       1000.       1000.       1000.       1000.       1000.       1000.       1000.       1000.    
        1000.       1000.       1000.       1000.       1000.       1000.       1000.       1000.       1000.       1000.    
  33    1001.       1001.       1001.       1001.       1001.       1001.       1001.       1001.       1001.       1001.    
        1001.       1001.       1001.       1001.       1001.       1001.       1001.       1001.       1001.       1001.    
        1001.       1001.       1001.       1001.       1001.       1001.       1001.       1001.       1001.       1001.    
        1001.       1001.       1001.       1001.       1001.       1001.       1001.       1001.       1001.       1001.    
        1001.       1001.       1001.       1001.       1001.       1001.       1001.       1001.       1001.       1001.    
        1000.       1000.       1000.       1000.       1000.       1000.       1000.       1000.       1000.       1000.    
        1000.       1000.       1000.       1000.       1000.       1000.       1000.       1000.       1000.       1000.    
        1000.       1000.       1000.       1000.       1000.       1000.       1000.       1000.       1000.       1000.    
        1000.       1000.       1000.       1000.       1000.       1000.       1000.       1000.       1000.       1000.    
        1000.       1000.       1000.       1000.       1000.       1000.       1000.       1000.       1000.       1000.    
  34    1001.       1001.       1001.       1001.       1001.       1001.       1001.       1001.       1001.       1001.    
        1001.       1001.       1001.       1001.       1001.       1001.       1001.       1001.       1001.       1001.    
        1001.       1001.       1001.       1001.       1001.       1001.       1001.       1001.       1001.       1001.    
        1001.       1001.       1001.       1001.       1001.       1001.       1001.       1001.       1001.       1001.    
        1001.       1001.       1001.       1001.       1001.       1001.       1001.       1001.       1001.       1001.    
        1000.       1000.       1000.       1000.       1000.       1000.       1000.       1000.       1000.       1000.    
        1000.       1000.       1000.       1000.       1000.       1000.       1000.       1000.       1000.       1000.    
        1000.       1000.       1000.       1000.       1000.       1000.       1000.       1000.       1000.       1000.    
        1000.       1000.       1000.       1000.       1000.       1000.       1000.       1000.       1000.       1000.    
        1000.       1000.       1000.       1000.       1000.       1000.       1000.       1000.       1000.       1000.    
  35    1001.       1001.       1001.       1001.       1001.       1001.       1001.       1001.       1001.       1001.    
        1001.       1001.       1001.       1001.       1001.       1001.       1001.       1001.       1001.       1001.    
        1001.       1001.       1001.       1001.       1001.       1001.       1001.       1001.       1001.       1001.    
        1001.       1001.       1001.       1001.       1001.       1001.       1001.       1001.       1001.       1001.    
        1001.       1001.       1001.       1001.       1001.       1001.       1001.       1001.       1001.       1001.    
        1000.       1000.       1000.       1000.       1000.       1000.       1000.       1000.       1000.       1000.    
        1000.       1000.       1000.       1000.       1000.       1000.       1000.       1000.       1000.       1000.    
        1000.       1000.       1000.       1000.       1000.       1000.       1000.       1000.       1000.       1000.    
        1000.       1000.       1000.       1000.       1000.       1000.       1000.       1000.       1000.       1000.    
        1000.       1000.       1000.       1000.       1000.       1000.       1000.       1000.       1000.       1000.    
  36    1001.       1001.       1001.       1001.       1001.       1001.       1001.       1001.       1001.       1001.    
        1001.       1001.       1001.       1001.       1001.       1001.       1001.       1001.       1001.       1001.    
        1001.       1001.       1001.       1001.       1001.       1001.       1001.       1001.       1001.       1001.    
        1001.       1001.       1001.       1001.       1001.       1001.       1001.       1001.       1001.       1001.    
        1001.       1001.       1001.       1001.       1001.       1001.       1001.       1001.       1001.       1001.    
        1000.       1000.       1000.       1000.       1000.       1000.       1000.       1000.       1000.       1000.    
        1000.       1000.       1000.       1000.       1000.       1000.       1000.       1000.       1000.       1000.    
        1000.       1000.       1000.       1000.       1000.       1000.       1000.       1000.       1000.       1000.    
        1000.       1000.       1000.       1000.       1000.       1000.       1000.       1000.       1000.       1000.    
        1000.       1000.       1000.       1000.       1000.       1000.       1000.       1000.       1000.       1000.    
  37    1001.       1001.       1001.       1001.       1001.       1001.       1001.       1001.       1001.       1001.    
        1001.       1001.       1001.       1001.       1001.       1001.       1001.       1001.       1001.       1001.    
        1001.       1001.       1001.       1001.       1001.       1001.       1001.       1001.       1001.       1001.    
        1001.       1001.       1001.       1001.       1001.       1001.       1001.       1001.       1001.       1001.    
        1001.       1001.       1001.       1001.       1001.       1001.       1001.       1001.       1001.       1001.    
        1000.       1000.       1000.       1000.       1000.       1000.       1000.       1000.       1000.       1000.    
        1000.       1000.       1000.       1000.       1000.       1000.       1000.       1000.       1000.       1000.    
        1000.       1000.       1000.       1000.       1000.       1000.       1000.       1000.       1000.       1000.    
        1000.       1000.       1000.       1000.       1000.       1000.       1000.       1000.       1000.       1000.    
        1000.       1000.       1000.       1000.       1000.       1000.       1000.       1000.       1000.       1000.    
  38    1001.       1001.       1001.       1001.       1001.       1001.       1001.       1001.       1001.       1001.    
        1001.       1001.       1001.       1001.       1001.       1001.       1001.       1001.       1001.       1001.    
        1001.       1001.       1001.       1001.       1001.       1001.       1001.       1001.       1001.       1001.    
        1001.       1001.       1001.       1001.       1001.       1001.       1001.       1001.       1001.       1001.    
        1001.       1001.       1001.       1001.       1001.       1001.       1001.       1001.       1001.       1001.    
        1000.       1000.       1000.       1000.       1000.       1000.       1000.       1000.       1000.       1000.    
        1000.       1000.       1000.       1000.       1000.       1000.       1000.       1000.       1000.       1000.    
        1000.       1000.       1000.       1000.       1000.       1000.       1000.       1000.       1000.       1000.    
        1000.       1000.       1000.       1000.       1000.       1000.       1000.       1000.       1000.       1000.    
        1000.       1000.       1000.       1000.       1000.       1000.       1000.       1000.       1000.       1000.    
  39    1001.       1001.       1001.       1001.       1001.       1001.       1001.       1001.       1001.       1001.    
        1001.       1001.       1001.       1001.       1001.       1001.       1001.       1001.       1001.       1001.    
        1001.       1001.       1001.       1001.       1001.       1001.       1001.       1001.       1001.       1001.    
        1001.       1001.       1001.       1001.       1001.       1001.       1001.       1001.       1001.       1001.    
        1001.       1001.       1001.       1001.       1001.       1001.       1001.       1001.       1001.       1001.    
        1000.       1000.       1000.       1000.       1000.       1000.       1000.       1000.       1000.       1000.    
        1000.       1000.       1000.       1000.       1000.       1000.       1000.       1000.       1000.       1000.    
        1000.       1000.       1000.       1000.       1000.       1000.       1000.       1000.       1000.       1000.    
        1000.       1000.       1000.       1000.       1000.       1000.       1000.       1000.       1000.       1000.    
        1000.       1000.       1000.       1000.       1000.       1000.       1000.       1000.       1000.       1000.    
  40    1001.       1001.       1001.       1001.       1001.       1001.       1001.       1001.       1001.       1001.    
        1001.       1001.       1001.       1001.       1001.       1001.       1001.       1001.       1001.       1001.    
        1001.       1001.       1001.       1001.       1001.       1001.       1001.       1001.       1001.       1001.    
        1001.       1001.       1001.       1001.       1001.       1001.       1001.       1001.       1001.       1001.    
        1001.       1001.       1001.       1001.       1001.       1001.       1001.       1001.       1001.       1001.    
        1000.       1000.       1000.       1000.       1000.       1000.       1000.       1000.       1000.       1000.    
        1000.       1000.       1000.       1000.       1000.       1000.       1000.       1000.       1000.       1000.    
        1000.       1000.       1000.       1000.       1000.       1000.       1000.       1000.       1000.       1000.    
        1000.       1000.       1000.       1000.       1000.       1000.       1000.       1000.       1000.       1000.    
        1000.       1000.       1000.       1000.       1000.       1000.       1000.       1000.       1000.       1000.    
  41    1001.       1001.       1001.       1001.       1001.       1001.       1001.       1001.       1001.       1001.    
        1001.       1001.       1001.       1001.       1001.       1001.       1001.       1001.       1001.       1001.    
        1001.       1001.       1001.       1001.       1001.       1001.       1001.       1001.       1001.       1001.    
        1001.       1001.       1001.       1001.       1001.       1001.       1001.       1001.       1001.       1001.    
        1001.       1001.       1001.       1001.       1001.       1001.       1001.       1001.       1001.       1001.    
        1000.       1000.       1000.       1000.       1000.       1000.       1000.       1000.       1000.       1000.    
        1000.       1000.       1000.       1000.       1000.       1000.       1000.       1000.       1000.       1000.    
        1000.       1000.       1000.       1000.       1000.       1000.       1000.       1000.       1000.       1000.    
        1000.       1000.       1000.       1000.       1000.       1000.       1000.       1000.       1000.       1000.    
        1000.       1000.       1000.       1000.       1000.       1000.       1000.       1000.       1000.       1000.    
  42    1001.       1001.       1001.       1001.       1001.       1001.       1001.       1001.       1001.       1001.    
        1001.       1001.       1001.       1001.       1001.       1001.       1001.       1001.       1001.       1001.    
        1001.       1001.       1001.       1001.       1001.       1001.       1001.       1001.       1001.       1001.    
        1001.       1001.       1001.       1001.       1001.       1001.       1001.       1001.       1001.       1001.    
        1001.       1001.       1001.       1001.       1001.       1001.       1001.       1001.       1001.       1001.    
        1000.       1000.       1000.       1000.       1000.       1000.       1000.       1000.       1000.       1000.    
        1000.       1000.       1000.       1000.       1000.       1000.       1000.       1000.       1000.       1000.    
        1000.       1000.       1000.       1000.       1000.       1000.       1000.       1000.       1000.       1000.    
        1000.       1000.       1000.       1000.       1000.       1000.       1000.       1000.       1000.       1000.    
        1000.       1000.       1000.       1000.       1000.       1000.       1000.       1000.       1000.       1000.    
  43    1001.       1001.       1001.       1001.       1001.       1001.       1001.       1001.       1001.       1001.    
        1001.       1001.       1001.       1001.       1001.       1001.       1001.       1001.       1001.       1001.    
        1001.       1001.       1001.       1001.       1001.       1001.       1001.       1001.       1001.       1001.    
        1001.       1001.       1001.       1001.       1001.       1001.       1001.       1001.       1001.       1001.    
        1001.       1001.       1001.       1001.       1001.       1001.       1001.       1001.       1001.       1001.    
        1000.       1000.       1000.       1000.       1000.       1000.       1000.       1000.       1000.       1000.    
        1000.       1000.       1000.       1000.       1000.       1000.       1000.       1000.       1000.       1000.    
        1000.       1000.       1000.       1000.       1000.       1000.       1000.       1000.       1000.       1000.    
        1000.       1000.       1000.       1000.       1000.       1000.       1000.       1000.       1000.       1000.    
        1000.       1000.       1000.       1000.       1000.       1000.       1000.       1000.       1000.       1000.    
  44    1001.       1001.       1001.       1001.       1001.       1001.       1001.       1001.       1001.       1001.    
        1001.       1001.       1001.       1001.       1001.       1001.       1001.       1001.       1001.       1001.    
        1001.       1001.       1001.       1001.       1001.       1001.       1001.       1001.       1001.       1001.    
        1001.       1001.       1001.       1001.       1001.       1001.       1001.       1001.       1001.       1001.    
        1001.       1001.       1001.       1001.       1001.       1001.       1001.       1001.       1001.       1001.    
        1000.       1000.       1000.       1000.       1000.       1000.       1000.       1000.       1000.       1000.    
        1000.       1000.       1000.       1000.       1000.       1000.       1000.       1000.       1000.       1000.    
        1000.       1000.       1000.       1000.       1000.       1000.       1000.       1000.       1000.       1000.    
        1000.       1000.       1000.       1000.       1000.       1000.       1000.       1000.       1000.       1000.    
        1000.       1000.       1000.       1000.       1000.       1000.       1000.       1000.       1000.       1000.    
  45    1001.       1001.       1001.       1001.       1001.       1001.       1001.       1001.       1001.       1001.    
        1001.       1001.       1001.       1001.       1001.       1001.       1001.       1001.       1001.       1001.    
        1001.       1001.       1001.       1001.       1001.       1001.       1001.       1001.       1001.       1001.    
        1001.       1001.       1001.       1001.       1001.       1001.       1001.       1001.       1001.       1001.    
        1001.       1001.       1001.       1001.       1001.       1001.       1001.       1001.       1001.       1001.    
        1000.       1000.       1000.       1000.       1000.       1000.       1000.       1000.       1000.       1000.    
        1000.       1000.       1000.       1000.       1000.       1000.       1000.       1000.       1000.       1000.    
        1000.       1000.       1000.       1000.       1000.       1000.       1000.       1000.       1000.       1000.    
        1000.       1000.       1000.       1000.       1000.       1000.       1000.       1000.       1000.       1000.    
        1000.       1000.       1000.       1000.       1000.       1000.       1000.       1000.       1000.       1000.    
  46    1001.       1001.       1001.       1001.       1001.       1001.       1001.       1001.       1001.       1001.    
        1001.       1001.       1001.       1001.       1001.       1001.       1001.       1001.       1001.       1001.    
        1001.       1001.       1001.       1001.       1001.       1001.       1001.       1001.       1001.       1001.    
        1001.       1001.       1001.       1001.       1001.       1001.       1001.       1001.       1001.       1001.    
        1001.       1001.       1001.       1001.       1001.       1001.       1001.       1001.       1001.       1001.    
        1000.       1000.       1000.       1000.       1000.       1000.       1000.       1000.       1000.       1000.    
        1000.       1000.       1000.       1000.       1000.       1000.       1000.       1000.       1000.       1000.    
        1000.       1000.       1000.       1000.       1000.       1000.       1000.       1000.       1000.       1000.    
        1000.       1000.       1000.       1000.       1000.       1000.       1000.       1000.       1000.       1000.    
        1000.       1000.       1000.       1000.       1000.       1000.       1000.       1000.       1000.       1000.    
  47    1001.       1001.       1001.       1001.       1001.       1001.       1001.       1001.       1001.       1001.    
        1001.       1001.       1001.       1001.       1001.       1001.       1001.       1001.       1001.       1001.    
        1001.       1001.       1001.       1001.       1001.       1001.       1001.       1001.       1001.       1001.    
        1001.       1001.       1001.       1001.       1001.       1001.       1001.       1001.       1001.       1001.    
        1001.       1001.       1001.       1001.       1001.       1001.       1001.       1001.       1001.       1001.    
        1000.       1000.       1000.       1000.       1000.       1000.       1000.       1000.       1000.       1000.    
        1000.       1000.       1000.       1000.       1000.       1000.       1000.       1000.       1000.       1000.    
        1000.       1000.       1000.       1000.       1000.       1000.       1000.       1000.       1000.       1000.    
        1000.       1000.       1000.       1000.       1000.       1000.       1000.       1000.       1000.       1000.    
        1000.       1000.       1000.       1000.       1000.       1000.       1000.       1000.       1000.       1000.    
  48    1001.       1001.       1001.       1001.       1001.       1001.       1001.       1001.       1001.       1001.    
        1001.       1001.       1001.       1001.       1001.       1001.       1001.       1001.       1001.       1001.    
        1001.       1001.       1001.       1001.       1001.       1001.       1001.       1001.       1001.       1001.    
        1001.       1001.       1001.       1001.       1001.       1001.       1001.       1001.       1001.       1001.    
        1001.       1001.       1001.       1001.       1001.       1001.       1001.       1001.       1001.       1001.    
        1000.       1000.       1000.       1000.       1000.       1000.       1000.       1000.       1000.       1000.    
        1000.       1000.       1000.       1000.       1000.       1000.       1000.       1000.       1000.       1000.    
        1000.       1000.       1000.       1000.       1000.       1000.       1000.       1000.       1000.       1000.    
        1000.       1000.       1000.       1000.       1000.       1000.       1000.       1000.       1000.       1000.    
        1000.       1000.       1000.       1000.       1000.       1000.       1000.       1000.       1000.       1000.    
  49    1001.       1001.       1001.       1001.       1001.       1001.       1001.       1001.       1001.       1001.    
        1001.       1001.       1001.       1001.       1001.       1001.       1001.       1001.       1001.       1001.    
        1001.       1001.       1001.       1001.       1001.       1001.       1001.       1001.       1001.       1001.    
        1001.       1001.       1001.       1001.       1001.       1001.       1001.       1001.       1001.       1001.    
        1001.       1001.       1001.       1001.       1001.       1001.       1001.       1001.       1001.       1001.    
        1000.       1000.       1000.       1000.       1000.       1000.       1000.       1000.       1000.       1000.    
        1000.       1000.       1000.       1000.       1000.       1000.       1000.       1000.       1000.       1000.    
        1000.       1000.       1000.       1000.       1000.       1000.       1000.       1000.       1000.       1000.    
        1000.       1000.       1000.       1000.       1000.       1000.       1000.       1000.       1000.       1000.    
        1000.       1000.       1000.       1000.       1000.       1000.       1000.       1000.       1000.       1000.    
  50    1001.       1001.       1001.       1001.       1001.       1001.       1001.       1001.       1001.       1001.    
        1001.       1001.       1001.       1001.       1001.       1001.       1001.       1001.       1001.       1001.    
        1001.       1001.       1001.       1001.       1001.       1001.       1001.       1001.       1001.       1001.    
        1001.       1001.       1001.       1001.       1001.       1001.       1001.       1001.       1001.       1001.    
        1001.       1001.       1001.       1001.       1001.       1001.       1001.       1001.       1001.       1001.    
        1000.       1000.       1000.       1000.       1000.       1000.       1000.       1000.       1000.       1000.    
        1000.       1000.       1000.       1000.       1000.       1000.       1000.       1000.       1000.       1000.    
        1000.       1000.       1000.       1000.       1000.       1000.       1000.       1000.       1000.       1000.    
        1000.       1000.       1000.       1000.       1000.       1000.       1000.       1000.       1000.       1000.    
        1000.       1000.       1000.       1000.       1000.       1000.       1000.       1000.       1000.       1000.    
  51    1001.       1001.       1001.       1001.       1001.       1001.       1001.       1001.       1001.       1001.    
        1001.       1001.       1001.       1001.       1001.       1001.       1001.       1001.       1001.       1001.    
        1001.       1001.       1001.       1001.       1001.       1001.       1001.       1001.       1001.       1001.    
        1001.       1001.       1001.       1001.       1001.       1001.       1001.       1001.       1001.       1001.    
        1001.       1001.       1001.       1001.       1001.       1001.       1001.       1001.       1001.       1001.    
        1000.       1000.       1000.       1000.       1000.       1000.       1000.       1000.       1000.       1000.    
        1000.       1000.       1000.       1000.       1000.       1000.       1000.       1000.       1000.       1000.    
        1000.       1000.       1000.       1000.       1000.       1000.       1000.       1000.       1000.       1000.    
        1000.       1000.       1000.       1000.       1000.       1000.       1000.       1000.       1000.       1000.    
        1000.       1000.       1000.       1000.       1000.       1000.       1000.       1000.       1000.       1000.    
  52    1001.       1001.       1001.       1001.       1001.       1001.       1001.       1001.       1001.       1001.    
        1001.       1001.       1001.       1001.       1001.       1001.       1001.       1001.       1001.       1001.    
        1001.       1001.       1001.       1001.       1001.       1001.       1001.       1001.       1001.       1001.    
        1001.       1001.       1001.       1001.       1001.       1001.       1001.       1001.       1001.       1001.    
        1001.       1001.       1001.       1001.       1001.       1001.       1001.       1001.       1001.       1001.    
        1000.       1000.       1000.       1000.       1000.       1000.       1000.       1000.       1000.       1000.    
        1000.       1000.       1000.       1000.       1000.       1000.       1000.       1000.       1000.       1000.    
        1000.       1000.       1000.       1000.       1000.       1000.       1000.       1000.       1000.       1000.    
        1000.       1000.       1000.       1000.       1000.       1000.       1000.       1000.       1000.       1000.    
        1000.       1000.       1000.       1000.       1000.       1000.       1000.       1000.       1000.       1000.    
  53    1001.       1001.       1001.       1001.       1001.       1001.       1001.       1001.       1001.       1001.    
        1001.       1001.       1001.       1001.       1001.       1001.       1001.       1001.       1001.       1001.    
        1001.       1001.       1001.       1001.       1001.       1001.       1001.       1001.       1001.       1001.    
        1001.       1001.       1001.       1001.       1001.       1001.       1001.       1001.       1001.       1001.    
        1001.       1001.       1001.       1001.       1001.       1001.       1001.       1001.       1001.       1001.    
        1000.       1000.       1000.       1000.       1000.       1000.       1000.       1000.       1000.       1000.    
        1000.       1000.       1000.       1000.       1000.       1000.       1000.       1000.       1000.       1000.    
        1000.       1000.       1000.       1000.       1000.       1000.       1000.       1000.       1000.       1000.    
        1000.       1000.       1000.       1000.       1000.       1000.       1000.       1000.       1000.       1000.    
        1000.       1000.       1000.       1000.       1000.       1000.       1000.       1000.       1000.       1000.    
  54    1001.       1001.       1001.       1001.       1001.       1001.       1001.       1001.       1001.       1001.    
        1001.       1001.       1001.       1001.       1001.       1001.       1001.       1001.       1001.       1001.    
        1001.       1001.       1001.       1001.       1001.       1001.       1001.       1001.       1001.       1001.    
        1001.       1001.       1001.       1001.       1001.       1001.       1001.       1001.       1001.       1001.    
        1001.       1001.       1001.       1001.       1001.       1001.       1001.       1001.       1001.       1001.    
        1000.       1000.       1000.       1000.       1000.       1000.       1000.       1000.       1000.       1000.    
        1000.       1000.       1000.       1000.       1000.       1000.       1000.       1000.       1000.       1000.    
        1000.       1000.       1000.       1000.       1000.       1000.       1000.       1000.       1000.       1000.    
        1000.       1000.       1000.       1000.       1000.       1000.       1000.       1000.       1000.       1000.    
        1000.       1000.       1000.       1000.       1000.       1000.       1000.       1000.       1000.       1000.    
  55    1001.       1001.       1001.       1001.       1001.       1001.       1001.       1001.       1001.       1001.    
        1001.       1001.       1001.       1001.       1001.       1001.       1001.       1001.       1001.       1001.    
        1001.       1001.       1001.       1001.       1001.       1001.       1001.       1001.       1001.       1001.    
        1001.       1001.       1001.       1001.       1001.       1001.       1001.       1001.       1001.       1001.    
        1001.       1001.       1001.       1001.       1001.       1001.       1001.       1001.       1001.       1001.    
        1000.       1000.       1000.       1000.       1000.       1000.       1000.       1000.       1000.       1000.    
        1000.       1000.       1000.       1000.       1000.       1000.       1000.       1000.       1000.       1000.    
        1000.       1000.       1000.       1000.       1000.       1000.       1000.       1000.       1000.       1000.    
        1000.       1000.       1000.       1000.       1000.       1000.       1000.       1000.       1000.       1000.    
        1000.       1000.       1000.       1000.       1000.       1000.       1000.       1000.       1000.       1000.    
  56    1001.       1001.       1001.       1001.       1001.       1001.       1001.       1001.       1001.       1001.    
        1001.       1001.       1001.       1001.       1001.       1001.       1001.       1001.       1001.       1001.    
        1001.       1001.       1001.       1001.       1001.       1001.       1001.       1001.       1001.       1001.    
        1001.       1001.       1001.       1001.       1001.       1001.       1001.       1001.       1001.       1001.    
        1001.       1001.       1001.       1001.       1001.       1001.       1001.       1001.       1001.       1001.    
        1000.       1000.       1000.       1000.       1000.       1000.       1000.       1000.       1000.       1000.    
        1000.       1000.       1000.       1000.       1000.       1000.       1000.       1000.       1000.       1000.    
        1000.       1000.       1000.       1000.       1000.       1000.       1000.       1000.       1000.       1000.    
        1000.       1000.       1000.       1000.       1000.       1000.       1000.       1000.       1000.       1000.    
        1000.       1000.       1000.       1000.       1000.       1000.       1000.       1000.       1000.       1000.    
  57    1001.       1001.       1001.       1001.       1001.       1001.       1001.       1001.       1001.       1001.    
        1001.       1001.       1001.       1001.       1001.       1001.       1001.       1001.       1001.       1001.    
        1001.       1001.       1001.       1001.       1001.       1001.       1001.       1001.       1001.       1001.    
        1001.       1001.       1001.       1001.       1001.       1001.       1001.       1001.       1001.       1001.    
        1001.       1001.       1001.       1001.       1001.       1001.       1001.       1001.       1001.       1001.    
        1000.       1000.       1000.       1000.       1000.       1000.       1000.       1000.       1000.       1000.    
        1000.       1000.       1000.       1000.       1000.       1000.       1000.       1000.       1000.       1000.    
        1000.       1000.       1000.       1000.       1000.       1000.       1000.       1000.       1000.       1000.    
[...]
        1000.       1000.       1000.       1000.       1000.       1000.       1000.       1000.       1000.       1000.    
  67    1001.       1001.       1001.       1001.       1001.       1001.       1001.       1001.       1001.       1001.    
        1001.       1001.       1001.       1001.       1001.       1001.       1001.       1001.       1001.       1001.    
        1001.       1001.       1001.       1001.       1001.       1001.       1001.       1001.       1001.       1001.    
        1001.       1001.       1001.       1001.       1001.       1001.       1001.       1001.       1001.       1001.    
        1001.       1001.       1001.       1001.       1001.       1001.       1001.       1001.       1001.       1001.    
        1000.       1000.       1000.       1000.       1000.       1000.       1000.       1000.       1000.       1000.    
        1000.       1000.       1000.       1000.       1000.       1000.       1000.       1000.       1000.       1000.    
        1000.       1000.       1000.       1000.       1000.       1000.       1000.       1000.       1000.       1000.    
        1000.       1000.       1000.       1000.       1000.       1000.       1000.       1000.       1000.       1000.    
        1000.       1000.       1000.       1000.       1000.       1000.       1000.       1000.       1000.       1000.    
  68    1001.       1001.       1001.       1001.       1001.       1001.       1001.       1001.       1001.       1001.    
        1001.       1001.       1001.       1001.       1001.       1001.       1001.       1001.       1001.       1001.    
        1001.       1001.       1001.       1001.       1001.       1001.       1001.       1001.       1001.       1001.    
        1001.       1001.       1001.       1001.       1001.       1001.       1001.       1001.       1001.       1001.    
        1001.       1001.       1001.       1001.       1001.       1001.       1001.       1001.       1001.       1001.    
        1000.       1000.       1000.       1000.       1000.       1000.       1000.       1000.       1000.       1000.    
        1000.       1000.       1000.       1000.       1000.       1000.       1000.       1000.       1000.       1000.    
        1000.       1000.       1000.       1000.       1000.       1000.       1000.       1000.       1000.       1000.    
        1000.       1000.       1000.       1000.       1000.       1000.       1000.       1000.       1000.       1000.    
        1000.       1000.       1000.       1000.       1000.       1000.       1000.       1000.       1000.       1000.    
  69    1001.       1001.       1001.       1001.       1001.       1001.       1001.       1001.       1001.       1001.    
        1001.       1001.       1001.       1001.       1001.       1001.       1001.       1001.       1001.       1001.    
        1001.       1001.       1001.       1001.       1001.       1001.       1001.       1001.       1001.       1001.    
        1001.       1001.       1001.       1001.       1001.       1001.       1001.       1001.       1001.       1001.    
        1001.       1001.       1001.       1001.       1001.       1001.       1001.       1001.       1001.       1001.    
        1000.       1000.       1000.       1000.       1000.       1000.       1000.       1000.       1000.       1000.    
        1000.       1000.       1000.       1000.       1000.       1000.       1000.       1000.       1000.       1000.    
        1000.       1000.       1000.       1000.       1000.       1000.       1000.       1000.       1000.       1000.    
        1000.       1000.       1000.       1000.       1000.       1000.       1000.       1000.       1000.       1000.    
        1000.       1000.       1000.       1000.       1000.       1000.       1000.       1000.       1000.       1000.    
  70    1001.       1001.       1001.       1001.       1001.       1001.       1001.       1001.       1001.       1001.    
        1001.       1001.       1001.       1001.       1001.       1001.       1001.       1001.       1001.       1001.    
        1001.       1001.       1001.       1001.       1001.       1001.       1001.       1001.       1001.       1001.    
        1001.       1001.       1001.       1001.       1001.       1001.       1001.       1001.       1001.       1001.    
        1001.       1001.       1001.       1001.       1001.       1001.       1001.       1001.       1001.       1001.    
        1000.       1000.       1000.       1000.       1000.       1000.       1000.       1000.       1000.       1000.    
        1000.       1000.       1000.       1000.       1000.       1000.       1000.       1000.       1000.       1000.    
        1000.       1000.       1000.       1000.       1000.       1000.       1000.       1000.       1000.       1000.    
        1000.       1000.       1000.       1000.       1000.       1000.       1000.       1000.       1000.       1000.    
        1000.       1000.       1000.       1000.       1000.       1000.       1000.       1000.       1000.       1000.    
  71    1001.       1001.       1001.       1001.       1001.       1001.       1001.       1001.       1001.       1001.    
        1001.       1001.       1001.       1001.       1001.       1001.       1001.       1001.       1001.       1001.    
        1001.       1001.       1001.       1001.       1001.       1001.       1001.       1001.       1001.       1001.    
        1001.       1001.       1001.       1001.       1001.       1001.       1001.       1001.       1001.       1001.    
        1001.       1001.       1001.       1001.       1001.       1001.       1001.       1001.       1001.       1001.    
        1000.       1000.       1000.       1000.       1000.       1000.       1000.       1000.       1000.       1000.    
        1000.       1000.       1000.       1000.       1000.       1000.       1000.       1000.       1000.       1000.    
        1000.       1000.       1000.       1000.       1000.       1000.       1000.       1000.       1000.       1000.    
        1000.       1000.       1000.       1000.       1000.       1000.       1000.       1000.       1000.       1000.    
        1000.       1000.       1000.       1000.       1000.       1000.       1000.       1000.       1000.       1000.    
  72    1001.       1001.       1001.       1001.       1001.       1001.       1001.       1001.       1001.       1001.    
        1001.       1001.       1001.       1001.       1001.       1001.       1001.       1001.       1001.       1001.    
        1001.       1001.       1001.       1001.       1001.       1001.       1001.       1001.       1001.       1001.    
        1001.       1001.       1001.       1001.       1001.       1001.       1001.       1001.       1001.       1001.    
        1001.       1001.       1001.       1001.       1001.       1001.       1001.       1001.       1001.       1001.    
        1000.       1000.       1000.       1000.       1000.       1000.       1000.       1000.       1000.       1000.    
        1000.       1000.       1000.       1000.       1000.       1000.       1000.       1000.       1000.       1000.    
        1000.       1000.       1000.       1000.       1000.       1000.       1000.       1000.       1000.       1000.    
        1000.       1000.       1000.       1000.       1000.       1000.       1000.       1000.       1000.       1000.    
        1000.       1000.       1000.       1000.       1000.       1000.       1000.       1000.       1000.       1000.    
  73    1001.       1001.       1001.       1001.       1001.       1001.       1001.       1001.       1001.       1001.    
        1001.       1001.       1001.       1001.       1001.       1001.       1001.       1001.       1001.       1001.    
        1001.       1001.       1001.       1001.       1001.       1001.       1001.       1001.       1001.       1001.    
        1001.       1001.       1001.       1001.       1001.       1001.       1001.       1001.       1001.       1001.    
        1001.       1001.       1001.       1001.       1001.       1001.       1001.       1001.       1001.       1001.    
        1000.       1000.       1000.       1000.       1000.       1000.       1000.       1000.       1000.       1000.    
        1000.       1000.       1000.       1000.       1000.       1000.       1000.       1000.       1000.       1000.    
        1000.       1000.       1000.       1000.       1000.       1000.       1000.       1000.       1000.       1000.    
        1000.       1000.       1000.       1000.       1000.       1000.       1000.       1000.       1000.       1000.    
        1000.       1000.       1000.       1000.       1000.       1000.       1000.       1000.       1000.       1000.    
  74    1001.       1001.       1001.       1001.       1001.       1001.       1001.       1001.       1001.       1001.    
        1001.       1001.       1001.       1001.       1001.       1001.       1001.       1001.       1001.       1001.    
        1001.       1001.       1001.       1001.       1001.       1001.       1001.       1001.       1001.       1001.    
        1001.       1001.       1001.       1001.       1001.       1001.       1001.       1001.       1001.       1001.    
        1001.       1001.       1001.       1001.       1001.       1001.       1001.       1001.       1001.       1001.    
        1000.       1000.       1000.       1000.       1000.       1000.       1000.       1000.       1000.       1000.    
        1000.       1000.       1000.       1000.       1000.       1000.       1000.       1000.       1000.       1000.    
        1000.       1000.       1000.       1000.       1000.       1000.       1000.       1000.       1000.       1000.    
        1000.       1000.       1000.       1000.       1000.       1000.       1000.       1000.       1000.       1000.    
        1000.       1000.       1000.       1000.       1000.       1000.       1000.       1000.       1000.       1000.    
  75    1001.       1001.       1001.       1001.       1001.       1001.       1001.       1001.       1001.       1001.    
        1001.       1001.       1001.       1001.       1001.       1001.       1001.       1001.       1001.       1001.    
        1001.       1001.       1001.       1001.       1001.       1001.       1001.       1001.       1001.       1001.    
        1001.       1001.       1001.       1001.       1001.       1001.       1001.       1001.       1001.       1001.    
        1001.       1001.       1001.       1001.       1001.       1001.       1001.       1001.       1001.       1001.    
        1000.       1000.       1000.       1000.       1000.       1000.       1000.       1000.       1000.       1000.    
        1000.       1000.       1000.       1000.       1000.       1000.       1000.       1000.       1000.       1000.    
        1000.       1000.       1000.       1000.       1000.       1000.       1000.       1000.       1000.       1000.    
        1000.       1000.       1000.       1000.       1000.       1000.       1000.       1000.       1000.       1000.    
        1000.       1000.       1000.       1000.       1000.       1000.       1000.       1000.       1000.       1000.    
  76    1001.       1001.       1001.       1001.       1001.       1001.       1001.       1001.       1001.       1001.    
        1001.       1001.       1001.       1001.       1001.       1001.       1001.       1001.       1001.       1001.    
        1001.       1001.       1001.       1001.       1001.       1001.       1001.       1001.       1001.       1001.    
        1001.       1001.       1001.       1001.       1001.       1001.       1001.       1001.       1001.       1001.    
        1001.       1001.       1001.       1001.       1001.       1001.       1001.       1001.       1001.       1001.    
        1000.       1000.       1000.       1000.       1000.       1000.       1000.       1000.       1000.       1000.    
        1000.       1000.       1000.       1000.       1000.       1000.       1000.       1000.       1000.       1000.    
        1000.       1000.       1000.       1000.       1000.       1000.       1000.       1000.       1000.       1000.    
        1000.       1000.       1000.       1000.       1000.       1000.       1000.       1000.       1000.       1000.    
        1000.       1000.       1000.       1000.       1000.       1000.       1000.       1000.       1000.       1000.    
  77    1001.       1001.       1001.       1001.       1001.       1001.       1001.       1001.       1001.       1001.    
        1001.       1001.       1001.       1001.       1001.       1001.       1001.       1001.       1001.       1001.    
        1001.       1001.       1001.       1001.       1001.       1001.       1001.       1001.       1001.       1001.    
        1001.       1001.       1001.       1001.       1001.       1001.       1001.       1001.       1001.       1001.    
        1001.       1001.       1001.       1001.       1001.       1001.       1001.       1001.       1001.       1001.    
        1000.       1000.       1000.       1000.       1000.       1000.       1000.       1000.       1000.       1000.    
        1000.       1000.       1000.       1000.       1000.       1000.       1000.       1000.       1000.       1000.    
        1000.       1000.       1000.       1000.       1000.       1000.       1000.       1000.       1000.       1000.    
        1000.       1000.       1000.       1000.       1000.       1000.       1000.       1000.       1000.       1000.    
        1000.       1000.       1000.       1000.       1000.       1000.       1000.       1000.       1000.       1000.    
  78    1001.       1001.       1001.       1001.       1001.       1001.       1001.       1001.       1001.       1001.    
        1001.       1001.       1001.       1001.       1001.       1001.       1001.       1001.       1001.       1001.    
        1001.       1001.       1001.       1001.       1001.       1001.       1001.       1001.       1001.       1001.    
        1001.       1001.       1001.       1001.       1001.       1001.       1001.       1001.       1001.       1001.    
        1001.       1001.       1001.       1001.       1001.       1001.       1001.       1001.       1001.       1001.    
        1000.       1000.       1000.       1000.       1000.       1000.       1000.       1000.       1000.       1000.    
        1000.       1000.       1000.       1000.       1000.       1000.       1000.       1000.       1000.       1000.    
        1000.       1000.       1000.       1000.       1000.       1000.       1000.       1000.       1000.       1000.    
        1000.       1000.       1000.       1000.       1000.       1000.       1000.       1000.       1000.       1000.    
        1000.       1000.       1000.       1000.       1000.       1000.       1000.       1000.       1000.       1000.    
  79    1001.       1001.       1001.       1001.       1001.       1001.       1001.       1001.       1001.       1001.    
        1001.       1001.       1001.       1001.       1001.       1001.       1001.       1001.       1001.       1001.    
        1001.       1001.       1001.       1001.       1001.       1001.       1001.       1001.       1001.       1001.    
        1001.       1001.       1001.       1001.       1001.       1001.       1001.       1001.       1001.       1001.    
        1001.       1001.       1001.       1001.       1001.       1001.       1001.       1001.       1001.       1001.    
        1000.       1000.       1000.       1000.       1000.       1000.       1000.       1000.       1000.       1000.    
        1000.       1000.       1000.       1000.       1000.       1000.       1000.       1000.       1000.       1000.    
        1000.       1000.       1000.       1000.       1000.       1000.       1000.       1000.       1000.       1000.    
        1000.       1000.       1000.       1000.       1000.       1000.       1000.       1000.       1000.       1000.    
        1000.       1000.       1000.       1000.       1000.       1000.       1000.       1000.       1000.       1000.    
  80    1001.       1001.       1001.       1001.       1001.       1001.       1001.       1001.       1001.       1001.    
        1001.       1001.       1001.       1001.       1001.       1001.       1001.       1001.       1001.       1001.    
        1001.       1001.       1001.       1001.       1001.       1001.       1001.       1001.       1001.       1001.    
        1001.       1001.       1001.       1001.       1001.       1001.       1001.       1001.       1001.       1001.    
        1001.       1001.       1001.       1001.       1001.       1001.       1001.       1001.       1001.       1001.    
        1000.       1000.       1000.       1000.       1000.       1000.       1000.       1000.       1000.       1000.    
        1000.       1000.       1000.       1000.       1000.       1000.       1000.       1000.       1000.       1000.    
        1000.       1000.       1000.       1000.       1000.       1000.       1000.       1000.       1000.       1000.    
        1000.       1000.       1000.       1000.       1000.       1000.       1000.       1000.       1000.       1000.    
        1000.       1000.       1000.       1000.       1000.       1000.       1000.       1000.       1000.       1000.    

 HEAD WILL BE SAVED ON UNIT 1016 AT END OF TIME STEP    1, STRESS PERIOD    1


  VOLUME BUDGET FOR ENTIRE MODEL AT END OF TIME STEP    1, STRESS PERIOD   1
  ---------------------------------------------------------------------------------------------------

     CUMULATIVE VOLUME      L**3       RATES FOR THIS TIME STEP      L**3/T          PACKAGE NAME    
     ------------------                 ------------------------                     ----------------

           IN:                                      IN:
           ---                                      ---
              STO-SS =       2.4127E-03                STO-SS =       2.4127E-03     STORAGE                          
                 WEL =           0.0000                   WEL =           0.0000     WEL_0                            
                 CHD =           8.0824                   CHD =           8.0824     CHD_0                            

            TOTAL IN =           8.0848              TOTAL IN =           8.0848

          OUT:                                     OUT:
          ----                                     ----
              STO-SS =       2.4127E-03                STO-SS =       2.4127E-03     STORAGE                          
                 WEL =           0.0000                   WEL =           0.0000     WEL_0                            
                 CHD =           8.0824                   CHD =           8.0824     CHD_0                            

           TOTAL OUT =           8.0848             TOTAL OUT =           8.0848

            IN - OUT =      -3.9015E-07              IN - OUT =      -3.9015E-07

 PERCENT DISCREPANCY =          -0.00     PERCENT DISCREPANCY =          -0.00




         TIME SUMMARY AT END OF TIME STEP    1 IN STRESS PERIOD    1
                    SECONDS     MINUTES      HOURS       DAYS        YEARS
                    -----------------------------------------------------------
   TIME STEP LENGTH  86400.      1440.0      24.000      1.0000     2.73785E-03
 STRESS PERIOD TIME  86400.      1440.0      24.000      1.0000     2.73785E-03
         TOTAL TIME  86400.      1440.0      24.000      1.0000     2.73785E-03


end timestep

